<?xml version="1.0" encoding="UTF-8"?>

<!-- generated on 2025-07-04 17:00:41 by Eclipse SUMO netconvert Version 1.23.1
<netconvertConfiguration xmlns:xsi="http://www.w3.org/2001/XMLSchema-instance" xsi:noNamespaceSchemaLocation="http://sumo.dlr.de/xsd/netconvertConfiguration.xsd">

    <input>
        <node-files value="example-data.nod.xml"/>
        <edge-files value="example-data.edg.xml"/>
    </input>

    <output>
        <output-file value="example-data.net.xml"/>
    </output>

</netconvertConfiguration>
-->

<net version="1.20" junctionCornerDetail="5" limitTurnSpeed="5.50" xmlns:xsi="http://www.w3.org/2001/XMLSchema-instance" xsi:noNamespaceSchemaLocation="http://sumo.dlr.de/xsd/net_file.xsd">

    <location netOffset="-52.52,-13.40" convBoundary="0.00,0.00,0.00,0.00" origBoundary="0.00,0.00,3600.00,3600.00" projParameter="!"/>

    <edge id=":v1_0" function="internal">
        <lane id=":v1_0_0" index="0" speed="13.89" length="1.30" shape="1.14,-1.30 1.72,-0.13"/>
    </edge>
    <edge id=":v1_1" function="internal">
        <lane id=":v1_1_0" index="0" speed="13.89" length="0.55" shape="1.14,-1.30 1.39,-0.80"/>
    </edge>
    <edge id=":v2_0" function="internal">
        <lane id=":v2_0_0" index="0" speed="13.89" length="0.55" shape="1.48,-0.62 1.72,-0.13"/>
    </edge>
    <edge id=":v2_1" function="internal">
        <lane id=":v2_1_0" index="0" speed="13.89" length="1.30" shape="1.14,-1.30 1.72,-0.13"/>
    </edge>
    <edge id=":v3_0" function="internal">
        <lane id=":v3_0_0" index="0" speed="13.89" length="0.85" shape="1.81,0.05 1.43,-0.71"/>
    </edge>

    <edge id="v0v1" from="v0" to="v1" priority="-1">
        <lane id="v0v1_0" index="0" speed="13.89" length="0.20" shape="1.05,-1.48 1.14,-1.30"/>
    </edge>
    <edge id="v0v2" from="v0" to="v2" priority="-1">
        <lane id="v0v2_0" index="0" speed="13.89" length="0.20" shape="1.05,-1.47 1.14,-1.30"/>
    </edge>
    <edge id="v1v2" from="v1" to="v2" priority="-1">
        <lane id="v1v2_0" index="0" speed="13.89" length="0.20" shape="1.39,-0.80 1.48,-0.62"/>
    </edge>
    <edge id="v1v4" from="v1" to="v4" priority="-1">
        <lane id="v1v4_0" index="0" speed="13.89" length="0.20" shape="1.72,-0.13 1.81,0.05"/>
    </edge>
    <edge id="v2v3" from="v2" to="v3" priority="-1">
        <lane id="v2v3_0" index="0" speed="13.89" length="0.20" shape="1.72,-0.13 1.81,0.05"/>
    </edge>
    <edge id="v3v4" from="v3" to="v4" priority="-1">
        <lane id="v3v4_0" index="0" speed="13.89" length="0.10" shape="1.43,-0.71 1.43,-0.71"/>
    </edge>

    <junction id="v0" type="dead_end" x="0.00" y="0.00" incLanes="" intLanes="" shape="0.00,0.00 2.86,-1.43 0.00,0.00 2.86,-1.43"/>
    <junction id="v1" type="priority" x="0.00" y="0.00" incLanes="v0v1_0" intLanes=":v1_0_0 :v1_1_0" shape="0.67,1.34 3.53,-0.09 2.19,-2.77 -0.67,-1.34">
        <request index="0" response="00" foes="00" cont="0"/>
        <request index="1" response="00" foes="00" cont="0"/>
    </junction>
    <junction id="v2" type="priority" x="0.00" y="0.00" incLanes="v1v2_0 v0v2_0" intLanes=":v2_0_0 :v2_1_0" shape="0.67,1.34 3.53,-0.09 2.19,-2.77 -0.67,-1.34">
        <request index="0" response="10" foes="10" cont="0"/>
        <request index="1" response="00" foes="01" cont="0"/>
    </junction>
    <junction id="v3" type="priority" x="0.00" y="0.00" incLanes="v2v3_0" intLanes=":v3_0_0" shape="0.00,0.00 2.86,-1.43 0.00,0.00">
        <request index="0" response="0" foes="0" cont="0"/>
    </junction>
    <junction id="v4" type="dead_end" x="0.00" y="0.00" incLanes="v1v4_0 v3v4_0" intLanes="" shape="2.86,-1.43 0.00,0.00 2.86,-1.43 0.00,0.00"/>

    <connection from="v0v1" to="v1v4" fromLane="0" toLane="0" via=":v1_0_0" dir="s" state="M"/>
    <connection from="v0v1" to="v1v2" fromLane="0" toLane="0" via=":v1_1_0" dir="s" state="M"/>
    <connection from="v0v2" to="v2v3" fromLane="0" toLane="0" via=":v2_1_0" dir="s" state="M"/>
    <connection from="v1v2" to="v2v3" fromLane="0" toLane="0" via=":v2_0_0" dir="s" state="m"/>
    <connection from="v2v3" to="v3v4" fromLane="0" toLane="0" via=":v3_0_0" dir="s" state="M"/>

    <connection from=":v1_0" to="v1v4" fromLane="0" toLane="0" dir="s" state="M"/>
    <connection from=":v1_1" to="v1v2" fromLane="0" toLane="0" dir="s" state="M"/>
    <connection from=":v2_0" to="v2v3" fromLane="0" toLane="0" dir="s" state="M"/>
    <connection from=":v2_1" to="v2v3" fromLane="0" toLane="0" dir="s" state="M"/>
    <connection from=":v3_0" to="v3v4" fromLane="0" toLane="0" dir="s" state="M"/>

</net>
