<?xml version="1.0" encoding="UTF-8"?>

<nodes version="1.20" xmlns:xsi="http://www.w3.org/2001/XMLSchema-instance"
    xsi:noNamespaceSchemaLocation="http://sumo.dlr.de/xsd/nodes_file.xsd">
    <location netOffset="0.00,0.00" convBoundary="0.00,0.00,3600.00,3600.00"
        origBoundary="0.00,0.00,3600.00,3600.00" projParameter="!" />

    <node id="v0" x="52000" y="40500" type="priority" />
    <node id="v1" x="52050" y="40600" type="priority" />
    <node id="v2" x="52100" y="40700" type="priority" />
    <node id="v3" x="52150" y="40800" type="priority" />
    <node id="v4" x="52200" y="40900" type="priority" />

</nodes>