<?xml version="1.0" ?>
<routes xmlns:xsi="http://www.w3.org/2001/XMLSchema-instance" xsi:noNamespaceSchemaLocation="http://sumo.dlr.de/xsd/routes_file.xsd">
    <trip id="0" depart="0.00" from="C0B0" to="A1A0" departSpeed="max" departPos="base" arrivalPos="max"/>
    <trip id="1" depart="0.62" from="C0B0" to="B2A2" departSpeed="max" departPos="base" arrivalPos="max"/>
    <trip id="2" depart="1.24" from="A0B0" to="B0C0" departSpeed="max" departPos="base" arrivalPos="max"/>
    <trip id="3" depart="1.86" from="C0C1" to="A1A2" departSpeed="max" departPos="base" arrivalPos="max"/>
    <trip id="4" depart="2.48" from="C2B2" to="A1A0" departSpeed="max" departPos="base" arrivalPos="max"/>
    <trip id="5" depart="3.10" from="C0C1" to="C1C0" departSpeed="max" departPos="base" arrivalPos="max"/>
    <trip id="6" depart="3.72" from="C0C1" to="B0A0" departSpeed="max" departPos="base" arrivalPos="max"/>
    <trip id="7" depart="4.34" from="A0A1" to="C1C0" departSpeed="max" departPos="base" arrivalPos="max"/>
    <trip id="8" depart="4.96" from="A0A1" to="C1C0" departSpeed="max" departPos="base" arrivalPos="max"/>
    <trip id="9" depart="5.58" from="C0C1" to="B0C0" departSpeed="max" departPos="base" arrivalPos="max"/>
    <trip id="10" depart="6.20" from="C2B2" to="A1A2" departSpeed="max" departPos="base" arrivalPos="max"/>
    <trip id="11" depart="6.82" from="A0B0" to="B2C2" departSpeed="max" departPos="base" arrivalPos="max"/>
    <trip id="12" depart="7.44" from="A2B2" to="B0C0" departSpeed="max" departPos="base" arrivalPos="max"/>
    <trip id="13" depart="8.06" from="A0B0" to="A1A2" departSpeed="max" departPos="base" arrivalPos="max"/>
    <trip id="14" depart="8.68" from="C0B0" to="A1A2" departSpeed="max" departPos="base" arrivalPos="max"/>
    <trip id="15" depart="9.30" from="A2B2" to="A1A0" departSpeed="max" departPos="base" arrivalPos="max"/>
    <trip id="16" depart="9.92" from="C2B2" to="B2A2" departSpeed="max" departPos="base" arrivalPos="max"/>
    <trip id="17" depart="10.54" from="C2C1" to="C1C0" departSpeed="max" departPos="base" arrivalPos="max"/>
    <trip id="18" depart="11.16" from="C0C1" to="A1A2" departSpeed="max" departPos="base" arrivalPos="max"/>
    <trip id="19" depart="11.78" from="C0C1" to="B2A2" departSpeed="max" departPos="base" arrivalPos="max"/>
    <trip id="20" depart="12.40" from="A2A1" to="B0A0" departSpeed="max" departPos="base" arrivalPos="max"/>
    <trip id="21" depart="13.02" from="A2A1" to="B0C0" departSpeed="max" departPos="base" arrivalPos="max"/>
    <trip id="22" depart="13.64" from="A0A1" to="C1C0" departSpeed="max" departPos="base" arrivalPos="max"/>
    <trip id="23" depart="14.26" from="A2B2" to="B2C2" departSpeed="max" departPos="base" arrivalPos="max"/>
    <trip id="24" depart="14.88" from="A2B2" to="B0A0" departSpeed="max" departPos="base" arrivalPos="max"/>
    <trip id="25" depart="15.50" from="C0B0" to="C1C2" departSpeed="max" departPos="base" arrivalPos="max"/>
    <trip id="26" depart="16.12" from="A2B2" to="C1C0" departSpeed="max" departPos="base" arrivalPos="max"/>
    <trip id="27" depart="16.74" from="C0B0" to="B0C0" departSpeed="max" departPos="base" arrivalPos="max"/>
    <trip id="28" depart="17.36" from="C0C1" to="A1A0" departSpeed="max" departPos="base" arrivalPos="max"/>
    <trip id="29" depart="17.98" from="A2B2" to="B2C2" departSpeed="max" departPos="base" arrivalPos="max"/>
    <trip id="30" depart="18.60" from="A0B0" to="C1C0" departSpeed="max" departPos="base" arrivalPos="max"/>
    <trip id="31" depart="19.22" from="A2B2" to="B0C0" departSpeed="max" departPos="base" arrivalPos="max"/>
    <trip id="32" depart="19.84" from="A0B0" to="B2C2" departSpeed="max" departPos="base" arrivalPos="max"/>
    <trip id="33" depart="20.46" from="C0C1" to="C1C0" departSpeed="max" departPos="base" arrivalPos="max"/>
    <trip id="34" depart="21.08" from="C0B0" to="A1A2" departSpeed="max" departPos="base" arrivalPos="max"/>
    <trip id="35" depart="21.70" from="C0C1" to="B0C0" departSpeed="max" departPos="base" arrivalPos="max"/>
    <trip id="36" depart="22.32" from="C0B0" to="C1C0" departSpeed="max" departPos="base" arrivalPos="max"/>
    <trip id="37" depart="22.94" from="C2B2" to="A1A2" departSpeed="max" departPos="base" arrivalPos="max"/>
    <trip id="38" depart="23.56" from="A0A1" to="B2A2" departSpeed="max" departPos="base" arrivalPos="max"/>
    <trip id="39" depart="24.18" from="C2B2" to="B0C0" departSpeed="max" departPos="base" arrivalPos="max"/>
    <trip id="40" depart="24.80" from="C0C1" to="B2C2" departSpeed="max" departPos="base" arrivalPos="max"/>
    <trip id="41" depart="25.42" from="C0B0" to="B2C2" departSpeed="max" departPos="base" arrivalPos="max"/>
    <trip id="42" depart="26.04" from="A0B0" to="A1A2" departSpeed="max" departPos="base" arrivalPos="max"/>
    <trip id="43" depart="26.66" from="C0B0" to="B0C0" departSpeed="max" departPos="base" arrivalPos="max"/>
    <trip id="44" depart="27.28" from="C2C1" to="C1C0" departSpeed="max" departPos="base" arrivalPos="max"/>
    <trip id="45" depart="27.90" from="A0A1" to="B2A2" departSpeed="max" departPos="base" arrivalPos="max"/>
    <trip id="46" depart="28.52" from="C2B2" to="C1C2" departSpeed="max" departPos="base" arrivalPos="max"/>
    <trip id="47" depart="29.14" from="A2A1" to="C1C0" departSpeed="max" departPos="base" arrivalPos="max"/>
    <trip id="48" depart="29.76" from="C2B2" to="B0A0" departSpeed="max" departPos="base" arrivalPos="max"/>
    <trip id="49" depart="30.38" from="C0B0" to="B2A2" departSpeed="max" departPos="base" arrivalPos="max"/>
    <trip id="50" depart="31.00" from="A2A1" to="B0C0" departSpeed="max" departPos="base" arrivalPos="max"/>
    <trip id="51" depart="31.62" from="A2B2" to="A1A0" departSpeed="max" departPos="base" arrivalPos="max"/>
    <trip id="52" depart="32.24" from="A0A1" to="B2C2" departSpeed="max" departPos="base" arrivalPos="max"/>
    <trip id="53" depart="32.86" from="A2B2" to="B0A0" departSpeed="max" departPos="base" arrivalPos="max"/>
    <trip id="54" depart="33.48" from="A2B2" to="C1C0" departSpeed="max" departPos="base" arrivalPos="max"/>
    <trip id="55" depart="34.10" from="C0C1" to="B2C2" departSpeed="max" departPos="base" arrivalPos="max"/>
    <trip id="56" depart="34.72" from="C0B0" to="B2A2" departSpeed="max" departPos="base" arrivalPos="max"/>
    <trip id="57" depart="35.34" from="C0C1" to="A1A0" departSpeed="max" departPos="base" arrivalPos="max"/>
    <trip id="58" depart="35.96" from="A2A1" to="C1C0" departSpeed="max" departPos="base" arrivalPos="max"/>
    <trip id="59" depart="36.58" from="A0B0" to="A1A2" departSpeed="max" departPos="base" arrivalPos="max"/>
    <trip id="60" depart="37.20" from="A2B2" to="C1C2" departSpeed="max" departPos="base" arrivalPos="max"/>
    <trip id="61" depart="37.82" from="C2B2" to="B2C2" departSpeed="max" departPos="base" arrivalPos="max"/>
    <trip id="62" depart="38.44" from="A0B0" to="C1C2" departSpeed="max" departPos="base" arrivalPos="max"/>
    <trip id="63" depart="39.06" from="C2C1" to="C1C2" departSpeed="max" departPos="base" arrivalPos="max"/>
    <trip id="64" depart="39.68" from="A0A1" to="B0A0" departSpeed="max" departPos="base" arrivalPos="max"/>
    <trip id="65" depart="40.30" from="C0C1" to="A1A2" departSpeed="max" departPos="base" arrivalPos="max"/>
    <trip id="66" depart="40.92" from="C0C1" to="A1A0" departSpeed="max" departPos="base" arrivalPos="max"/>
    <trip id="67" depart="41.54" from="A0A1" to="B0A0" departSpeed="max" departPos="base" arrivalPos="max"/>
    <trip id="68" depart="42.16" from="A0A1" to="C1C2" departSpeed="max" departPos="base" arrivalPos="max"/>
    <trip id="69" depart="42.78" from="A0A1" to="B0C0" departSpeed="max" departPos="base" arrivalPos="max"/>
    <trip id="70" depart="43.40" from="C2B2" to="B0A0" departSpeed="max" departPos="base" arrivalPos="max"/>
    <trip id="71" depart="44.02" from="C0B0" to="B2C2" departSpeed="max" departPos="base" arrivalPos="max"/>
    <trip id="72" depart="44.64" from="C2B2" to="B0C0" departSpeed="max" departPos="base" arrivalPos="max"/>
    <trip id="73" depart="45.26" from="C2C1" to="B0C0" departSpeed="max" departPos="base" arrivalPos="max"/>
    <trip id="74" depart="45.88" from="C2C1" to="B0A0" departSpeed="max" departPos="base" arrivalPos="max"/>
    <trip id="75" depart="46.50" from="C0C1" to="C1C0" departSpeed="max" departPos="base" arrivalPos="max"/>
    <trip id="76" depart="47.12" from="C0C1" to="B2C2" departSpeed="max" departPos="base" arrivalPos="max"/>
    <trip id="77" depart="47.74" from="C2C1" to="C1C0" departSpeed="max" departPos="base" arrivalPos="max"/>
    <trip id="78" depart="48.36" from="A0A1" to="A1A0" departSpeed="max" departPos="base" arrivalPos="max"/>
    <trip id="79" depart="48.98" from="A2B2" to="A1A2" departSpeed="max" departPos="base" arrivalPos="max"/>
    <trip id="80" depart="49.60" from="A2B2" to="C1C0" departSpeed="max" departPos="base" arrivalPos="max"/>
    <trip id="81" depart="50.22" from="C0C1" to="B0C0" departSpeed="max" departPos="base" arrivalPos="max"/>
    <trip id="82" depart="50.84" from="A2B2" to="B2C2" departSpeed="max" departPos="base" arrivalPos="max"/>
    <trip id="83" depart="51.46" from="A0A1" to="C1C0" departSpeed="max" departPos="base" arrivalPos="max"/>
    <trip id="84" depart="52.08" from="C0C1" to="B0A0" departSpeed="max" departPos="base" arrivalPos="max"/>
    <trip id="85" depart="52.70" from="A0B0" to="C1C2" departSpeed="max" departPos="base" arrivalPos="max"/>
    <trip id="86" depart="53.32" from="C0B0" to="B2C2" departSpeed="max" departPos="base" arrivalPos="max"/>
    <trip id="87" depart="53.94" from="A0B0" to="B0A0" departSpeed="max" departPos="base" arrivalPos="max"/>
    <trip id="88" depart="54.56" from="C0C1" to="C1C2" departSpeed="max" departPos="base" arrivalPos="max"/>
    <trip id="89" depart="55.18" from="A2B2" to="C1C2" departSpeed="max" departPos="base" arrivalPos="max"/>
    <trip id="90" depart="55.80" from="A2A1" to="B2A2" departSpeed="max" departPos="base" arrivalPos="max"/>
    <trip id="91" depart="56.42" from="A0A1" to="B0C0" departSpeed="max" departPos="base" arrivalPos="max"/>
    <trip id="92" depart="57.04" from="C2C1" to="A1A2" departSpeed="max" departPos="base" arrivalPos="max"/>
    <trip id="93" depart="57.66" from="A2B2" to="A1A2" departSpeed="max" departPos="base" arrivalPos="max"/>
    <trip id="94" depart="58.28" from="A0A1" to="A1A2" departSpeed="max" departPos="base" arrivalPos="max"/>
    <trip id="95" depart="58.90" from="C0B0" to="B2C2" departSpeed="max" departPos="base" arrivalPos="max"/>
    <trip id="96" depart="59.52" from="C2C1" to="B0C0" departSpeed="max" departPos="base" arrivalPos="max"/>
    <trip id="97" depart="60.14" from="C2C1" to="B0C0" departSpeed="max" departPos="base" arrivalPos="max"/>
    <trip id="98" depart="60.76" from="C2B2" to="B2C2" departSpeed="max" departPos="base" arrivalPos="max"/>
    <trip id="99" depart="61.38" from="C2B2" to="A1A0" departSpeed="max" departPos="base" arrivalPos="max"/>
    <trip id="100" depart="62.00" from="A0A1" to="B2C2" departSpeed="max" departPos="base" arrivalPos="max"/>
    <trip id="101" depart="62.62" from="C2B2" to="A1A0" departSpeed="max" departPos="base" arrivalPos="max"/>
    <trip id="102" depart="63.24" from="C2C1" to="A1A2" departSpeed="max" departPos="base" arrivalPos="max"/>
    <trip id="103" depart="63.86" from="C2C1" to="B0C0" departSpeed="max" departPos="base" arrivalPos="max"/>
    <trip id="104" depart="64.48" from="A0B0" to="B2C2" departSpeed="max" departPos="base" arrivalPos="max"/>
    <trip id="105" depart="65.10" from="C2C1" to="B0C0" departSpeed="max" departPos="base" arrivalPos="max"/>
    <trip id="106" depart="65.72" from="C0B0" to="A1A2" departSpeed="max" departPos="base" arrivalPos="max"/>
    <trip id="107" depart="66.34" from="C0C1" to="B2A2" departSpeed="max" departPos="base" arrivalPos="max"/>
    <trip id="108" depart="66.96" from="A2B2" to="A1A0" departSpeed="max" departPos="base" arrivalPos="max"/>
    <trip id="109" depart="67.58" from="A0A1" to="B0C0" departSpeed="max" departPos="base" arrivalPos="max"/>
    <trip id="110" depart="68.20" from="A0A1" to="B2C2" departSpeed="max" departPos="base" arrivalPos="max"/>
    <trip id="111" depart="68.82" from="C0C1" to="B2A2" departSpeed="max" departPos="base" arrivalPos="max"/>
    <trip id="112" depart="69.44" from="C0C1" to="B2A2" departSpeed="max" departPos="base" arrivalPos="max"/>
    <trip id="113" depart="70.06" from="C0B0" to="C1C0" departSpeed="max" departPos="base" arrivalPos="max"/>
    <trip id="114" depart="70.68" from="C2B2" to="A1A0" departSpeed="max" departPos="base" arrivalPos="max"/>
    <trip id="115" depart="71.30" from="A2B2" to="B2C2" departSpeed="max" departPos="base" arrivalPos="max"/>
    <trip id="116" depart="71.92" from="C2B2" to="C1C2" departSpeed="max" departPos="base" arrivalPos="max"/>
    <trip id="117" depart="72.54" from="C2B2" to="B2A2" departSpeed="max" departPos="base" arrivalPos="max"/>
    <trip id="118" depart="73.16" from="A0B0" to="A1A0" departSpeed="max" departPos="base" arrivalPos="max"/>
    <trip id="119" depart="73.78" from="C2B2" to="A1A2" departSpeed="max" departPos="base" arrivalPos="max"/>
    <trip id="120" depart="74.40" from="C2B2" to="B2A2" departSpeed="max" departPos="base" arrivalPos="max"/>
    <trip id="121" depart="75.02" from="A2B2" to="A1A0" departSpeed="max" departPos="base" arrivalPos="max"/>
    <trip id="122" depart="75.64" from="A0B0" to="A1A2" departSpeed="max" departPos="base" arrivalPos="max"/>
    <trip id="123" depart="76.26" from="C0B0" to="B0A0" departSpeed="max" departPos="base" arrivalPos="max"/>
    <trip id="124" depart="76.88" from="C0C1" to="A1A0" departSpeed="max" departPos="base" arrivalPos="max"/>
    <trip id="125" depart="77.50" from="A0A1" to="B0C0" departSpeed="max" departPos="base" arrivalPos="max"/>
    <trip id="126" depart="78.12" from="C0B0" to="B0C0" departSpeed="max" departPos="base" arrivalPos="max"/>
    <trip id="127" depart="78.74" from="C2C1" to="A1A0" departSpeed="max" departPos="base" arrivalPos="max"/>
    <trip id="128" depart="79.36" from="A0A1" to="C1C2" departSpeed="max" departPos="base" arrivalPos="max"/>
    <trip id="129" depart="79.98" from="A0A1" to="B0C0" departSpeed="max" departPos="base" arrivalPos="max"/>
    <trip id="130" depart="80.60" from="C2B2" to="A1A0" departSpeed="max" departPos="base" arrivalPos="max"/>
    <trip id="131" depart="81.22" from="A0A1" to="C1C0" departSpeed="max" departPos="base" arrivalPos="max"/>
    <trip id="132" depart="81.84" from="C0C1" to="A1A2" departSpeed="max" departPos="base" arrivalPos="max"/>
    <trip id="133" depart="82.46" from="A2B2" to="B2C2" departSpeed="max" departPos="base" arrivalPos="max"/>
    <trip id="134" depart="83.08" from="C2B2" to="B0C0" departSpeed="max" departPos="base" arrivalPos="max"/>
    <trip id="135" depart="83.70" from="C0C1" to="A1A0" departSpeed="max" departPos="base" arrivalPos="max"/>
    <trip id="136" depart="84.32" from="A0B0" to="B2A2" departSpeed="max" departPos="base" arrivalPos="max"/>
    <trip id="137" depart="84.94" from="A2B2" to="C1C2" departSpeed="max" departPos="base" arrivalPos="max"/>
    <trip id="138" depart="85.56" from="A2A1" to="B2A2" departSpeed="max" departPos="base" arrivalPos="max"/>
    <trip id="139" depart="86.18" from="C0B0" to="A1A2" departSpeed="max" departPos="base" arrivalPos="max"/>
    <trip id="140" depart="86.80" from="C2B2" to="B2A2" departSpeed="max" departPos="base" arrivalPos="max"/>
    <trip id="141" depart="87.42" from="C0C1" to="A1A0" departSpeed="max" departPos="base" arrivalPos="max"/>
    <trip id="142" depart="88.04" from="C0C1" to="B2A2" departSpeed="max" departPos="base" arrivalPos="max"/>
    <trip id="143" depart="88.66" from="C0C1" to="C1C0" departSpeed="max" departPos="base" arrivalPos="max"/>
    <trip id="144" depart="89.28" from="C2C1" to="A1A2" departSpeed="max" departPos="base" arrivalPos="max"/>
    <trip id="145" depart="89.90" from="A0B0" to="B2A2" departSpeed="max" departPos="base" arrivalPos="max"/>
    <trip id="146" depart="90.52" from="A2B2" to="B0A0" departSpeed="max" departPos="base" arrivalPos="max"/>
    <trip id="147" depart="91.14" from="C2B2" to="C1C0" departSpeed="max" departPos="base" arrivalPos="max"/>
    <trip id="148" depart="91.76" from="A0B0" to="B2C2" departSpeed="max" departPos="base" arrivalPos="max"/>
    <trip id="149" depart="92.38" from="A0B0" to="B0C0" departSpeed="max" departPos="base" arrivalPos="max"/>
    <trip id="150" depart="93.00" from="A2A1" to="A1A2" departSpeed="max" departPos="base" arrivalPos="max"/>
    <trip id="151" depart="93.62" from="C0C1" to="B0A0" departSpeed="max" departPos="base" arrivalPos="max"/>
    <trip id="152" depart="94.24" from="A0B0" to="B2A2" departSpeed="max" departPos="base" arrivalPos="max"/>
    <trip id="153" depart="94.86" from="C0B0" to="A1A0" departSpeed="max" departPos="base" arrivalPos="max"/>
    <trip id="154" depart="95.48" from="C2B2" to="B0C0" departSpeed="max" departPos="base" arrivalPos="max"/>
    <trip id="155" depart="96.10" from="A0B0" to="A1A0" departSpeed="max" departPos="base" arrivalPos="max"/>
    <trip id="156" depart="96.72" from="C2C1" to="C1C0" departSpeed="max" departPos="base" arrivalPos="max"/>
    <trip id="157" depart="97.34" from="C2B2" to="B2C2" departSpeed="max" departPos="base" arrivalPos="max"/>
    <trip id="158" depart="97.96" from="A0B0" to="C1C2" departSpeed="max" departPos="base" arrivalPos="max"/>
    <trip id="159" depart="98.58" from="A0A1" to="A1A2" departSpeed="max" departPos="base" arrivalPos="max"/>
    <trip id="160" depart="99.20" from="A2A1" to="B2A2" departSpeed="max" departPos="base" arrivalPos="max"/>
    <trip id="161" depart="99.82" from="C2B2" to="A1A2" departSpeed="max" departPos="base" arrivalPos="max"/>
    <trip id="162" depart="100.44" from="A2B2" to="A1A2" departSpeed="max" departPos="base" arrivalPos="max"/>
    <trip id="163" depart="101.06" from="C0B0" to="A1A0" departSpeed="max" departPos="base" arrivalPos="max"/>
    <trip id="164" depart="101.68" from="C0B0" to="A1A0" departSpeed="max" departPos="base" arrivalPos="max"/>
    <trip id="165" depart="102.30" from="A2A1" to="C1C0" departSpeed="max" departPos="base" arrivalPos="max"/>
    <trip id="166" depart="102.92" from="C2C1" to="B2A2" departSpeed="max" departPos="base" arrivalPos="max"/>
    <trip id="167" depart="103.54" from="A2B2" to="B2C2" departSpeed="max" departPos="base" arrivalPos="max"/>
    <trip id="168" depart="104.16" from="C0C1" to="C1C2" departSpeed="max" departPos="base" arrivalPos="max"/>
    <trip id="169" depart="104.78" from="A0A1" to="C1C2" departSpeed="max" departPos="base" arrivalPos="max"/>
    <trip id="170" depart="105.40" from="A2B2" to="B2A2" departSpeed="max" departPos="base" arrivalPos="max"/>
    <trip id="171" depart="106.02" from="C0C1" to="B2C2" departSpeed="max" departPos="base" arrivalPos="max"/>
    <trip id="172" depart="106.64" from="C2C1" to="B2C2" departSpeed="max" departPos="base" arrivalPos="max"/>
    <trip id="173" depart="107.26" from="C0B0" to="B0C0" departSpeed="max" departPos="base" arrivalPos="max"/>
    <trip id="174" depart="107.88" from="C2B2" to="B0C0" departSpeed="max" departPos="base" arrivalPos="max"/>
    <trip id="175" depart="108.50" from="A2A1" to="A1A2" departSpeed="max" departPos="base" arrivalPos="max"/>
    <trip id="176" depart="109.12" from="A0A1" to="A1A0" departSpeed="max" departPos="base" arrivalPos="max"/>
    <trip id="177" depart="109.74" from="A0B0" to="B0C0" departSpeed="max" departPos="base" arrivalPos="max"/>
    <trip id="178" depart="110.36" from="A2A1" to="B2A2" departSpeed="max" departPos="base" arrivalPos="max"/>
    <trip id="179" depart="110.98" from="C2B2" to="B2C2" departSpeed="max" departPos="base" arrivalPos="max"/>
    <trip id="180" depart="111.60" from="C2B2" to="C1C2" departSpeed="max" departPos="base" arrivalPos="max"/>
    <trip id="181" depart="112.22" from="A0A1" to="B0C0" departSpeed="max" departPos="base" arrivalPos="max"/>
    <trip id="182" depart="112.84" from="A0B0" to="B0C0" departSpeed="max" departPos="base" arrivalPos="max"/>
    <trip id="183" depart="113.46" from="A0B0" to="C1C0" departSpeed="max" departPos="base" arrivalPos="max"/>
    <trip id="184" depart="114.08" from="A0A1" to="B2C2" departSpeed="max" departPos="base" arrivalPos="max"/>
    <trip id="185" depart="114.70" from="C2C1" to="B2A2" departSpeed="max" departPos="base" arrivalPos="max"/>
    <trip id="186" depart="115.32" from="C2C1" to="C1C0" departSpeed="max" departPos="base" arrivalPos="max"/>
    <trip id="187" depart="115.94" from="C2B2" to="C1C0" departSpeed="max" departPos="base" arrivalPos="max"/>
    <trip id="188" depart="116.56" from="A0B0" to="A1A2" departSpeed="max" departPos="base" arrivalPos="max"/>
    <trip id="189" depart="117.18" from="A0A1" to="C1C0" departSpeed="max" departPos="base" arrivalPos="max"/>
    <trip id="190" depart="117.80" from="A2B2" to="B2C2" departSpeed="max" departPos="base" arrivalPos="max"/>
    <trip id="191" depart="118.42" from="C0B0" to="A1A0" departSpeed="max" departPos="base" arrivalPos="max"/>
    <trip id="192" depart="119.04" from="C0C1" to="B2A2" departSpeed="max" departPos="base" arrivalPos="max"/>
    <trip id="193" depart="119.66" from="C2B2" to="B2C2" departSpeed="max" departPos="base" arrivalPos="max"/>
    <trip id="194" depart="120.28" from="A2B2" to="C1C2" departSpeed="max" departPos="base" arrivalPos="max"/>
    <trip id="195" depart="120.90" from="A0B0" to="B0A0" departSpeed="max" departPos="base" arrivalPos="max"/>
    <trip id="196" depart="121.52" from="C0C1" to="B0C0" departSpeed="max" departPos="base" arrivalPos="max"/>
    <trip id="197" depart="122.14" from="A0B0" to="B0C0" departSpeed="max" departPos="base" arrivalPos="max"/>
    <trip id="198" depart="122.76" from="A2A1" to="B2A2" departSpeed="max" departPos="base" arrivalPos="max"/>
    <trip id="199" depart="123.38" from="A2B2" to="B0C0" departSpeed="max" departPos="base" arrivalPos="max"/>
    <trip id="200" depart="124.00" from="C0B0" to="B0C0" departSpeed="max" departPos="base" arrivalPos="max"/>
    <trip id="201" depart="124.62" from="C0C1" to="C1C0" departSpeed="max" departPos="base" arrivalPos="max"/>
    <trip id="202" depart="125.24" from="A2B2" to="B0A0" departSpeed="max" departPos="base" arrivalPos="max"/>
    <trip id="203" depart="125.86" from="C2C1" to="B2C2" departSpeed="max" departPos="base" arrivalPos="max"/>
    <trip id="204" depart="126.48" from="C2C1" to="B2A2" departSpeed="max" departPos="base" arrivalPos="max"/>
    <trip id="205" depart="127.10" from="A2A1" to="B2A2" departSpeed="max" departPos="base" arrivalPos="max"/>
    <trip id="206" depart="127.72" from="A2B2" to="B0A0" departSpeed="max" departPos="base" arrivalPos="max"/>
    <trip id="207" depart="128.34" from="C0B0" to="B2A2" departSpeed="max" departPos="base" arrivalPos="max"/>
    <trip id="208" depart="128.96" from="A2A1" to="A1A0" departSpeed="max" departPos="base" arrivalPos="max"/>
    <trip id="209" depart="129.58" from="A2A1" to="B0A0" departSpeed="max" departPos="base" arrivalPos="max"/>
    <trip id="210" depart="130.20" from="C0C1" to="B2C2" departSpeed="max" departPos="base" arrivalPos="max"/>
    <trip id="211" depart="130.82" from="A2A1" to="C1C2" departSpeed="max" departPos="base" arrivalPos="max"/>
    <trip id="212" depart="131.44" from="A2B2" to="B2A2" departSpeed="max" departPos="base" arrivalPos="max"/>
    <trip id="213" depart="132.06" from="A2A1" to="C1C2" departSpeed="max" departPos="base" arrivalPos="max"/>
    <trip id="214" depart="132.68" from="C2B2" to="B2C2" departSpeed="max" departPos="base" arrivalPos="max"/>
    <trip id="215" depart="133.30" from="A0B0" to="A1A0" departSpeed="max" departPos="base" arrivalPos="max"/>
    <trip id="216" depart="133.92" from="A2A1" to="B0C0" departSpeed="max" departPos="base" arrivalPos="max"/>
    <trip id="217" depart="134.54" from="C2B2" to="A1A0" departSpeed="max" departPos="base" arrivalPos="max"/>
    <trip id="218" depart="135.16" from="C0C1" to="A1A2" departSpeed="max" departPos="base" arrivalPos="max"/>
    <trip id="219" depart="135.78" from="C0B0" to="B0A0" departSpeed="max" departPos="base" arrivalPos="max"/>
    <trip id="220" depart="136.40" from="C2B2" to="B2C2" departSpeed="max" departPos="base" arrivalPos="max"/>
    <trip id="221" depart="137.02" from="A2B2" to="C1C2" departSpeed="max" departPos="base" arrivalPos="max"/>
    <trip id="222" depart="137.64" from="C2C1" to="B2A2" departSpeed="max" departPos="base" arrivalPos="max"/>
    <trip id="223" depart="138.26" from="C2B2" to="C1C2" departSpeed="max" departPos="base" arrivalPos="max"/>
    <trip id="224" depart="138.88" from="C2B2" to="C1C2" departSpeed="max" departPos="base" arrivalPos="max"/>
    <trip id="225" depart="139.50" from="C0C1" to="A1A0" departSpeed="max" departPos="base" arrivalPos="max"/>
    <trip id="226" depart="140.12" from="C2C1" to="B0C0" departSpeed="max" departPos="base" arrivalPos="max"/>
    <trip id="227" depart="140.74" from="C0C1" to="C1C2" departSpeed="max" departPos="base" arrivalPos="max"/>
    <trip id="228" depart="141.36" from="C2B2" to="B2C2" departSpeed="max" departPos="base" arrivalPos="max"/>
    <trip id="229" depart="141.98" from="C0C1" to="B2C2" departSpeed="max" departPos="base" arrivalPos="max"/>
    <trip id="230" depart="142.60" from="A2B2" to="C1C2" departSpeed="max" departPos="base" arrivalPos="max"/>
    <trip id="231" depart="143.22" from="C0B0" to="B0A0" departSpeed="max" departPos="base" arrivalPos="max"/>
    <trip id="232" depart="143.84" from="A2B2" to="B0A0" departSpeed="max" departPos="base" arrivalPos="max"/>
    <trip id="233" depart="144.46" from="C2B2" to="A1A2" departSpeed="max" departPos="base" arrivalPos="max"/>
    <trip id="234" depart="145.08" from="A0A1" to="B0A0" departSpeed="max" departPos="base" arrivalPos="max"/>
    <trip id="235" depart="145.70" from="C0C1" to="C1C2" departSpeed="max" departPos="base" arrivalPos="max"/>
    <trip id="236" depart="146.32" from="C0B0" to="C1C2" departSpeed="max" departPos="base" arrivalPos="max"/>
    <trip id="237" depart="146.94" from="C2C1" to="B2A2" departSpeed="max" departPos="base" arrivalPos="max"/>
    <trip id="238" depart="147.56" from="A2A1" to="B2A2" departSpeed="max" departPos="base" arrivalPos="max"/>
    <trip id="239" depart="148.18" from="A2B2" to="A1A0" departSpeed="max" departPos="base" arrivalPos="max"/>
    <trip id="240" depart="148.80" from="C0C1" to="A1A2" departSpeed="max" departPos="base" arrivalPos="max"/>
    <trip id="241" depart="149.42" from="A0A1" to="A1A2" departSpeed="max" departPos="base" arrivalPos="max"/>
    <trip id="242" depart="150.04" from="C2B2" to="B2A2" departSpeed="max" departPos="base" arrivalPos="max"/>
    <trip id="243" depart="150.66" from="C0C1" to="C1C2" departSpeed="max" departPos="base" arrivalPos="max"/>
    <trip id="244" depart="151.28" from="C0C1" to="C1C2" departSpeed="max" departPos="base" arrivalPos="max"/>
    <trip id="245" depart="151.90" from="A2B2" to="C1C2" departSpeed="max" departPos="base" arrivalPos="max"/>
    <trip id="246" depart="152.52" from="A0A1" to="B2A2" departSpeed="max" departPos="base" arrivalPos="max"/>
    <trip id="247" depart="153.14" from="A2B2" to="C1C2" departSpeed="max" departPos="base" arrivalPos="max"/>
    <trip id="248" depart="153.76" from="A2A1" to="A1A2" departSpeed="max" departPos="base" arrivalPos="max"/>
    <trip id="249" depart="154.38" from="C0C1" to="B2A2" departSpeed="max" departPos="base" arrivalPos="max"/>
    <trip id="250" depart="155.00" from="A0A1" to="A1A0" departSpeed="max" departPos="base" arrivalPos="max"/>
    <trip id="251" depart="155.62" from="C0C1" to="B2C2" departSpeed="max" departPos="base" arrivalPos="max"/>
    <trip id="252" depart="156.24" from="C2C1" to="B2A2" departSpeed="max" departPos="base" arrivalPos="max"/>
    <trip id="253" depart="156.86" from="C2C1" to="C1C0" departSpeed="max" departPos="base" arrivalPos="max"/>
    <trip id="254" depart="157.48" from="C2B2" to="B2A2" departSpeed="max" departPos="base" arrivalPos="max"/>
    <trip id="255" depart="158.10" from="C2C1" to="A1A2" departSpeed="max" departPos="base" arrivalPos="max"/>
    <trip id="256" depart="158.72" from="A2B2" to="B2C2" departSpeed="max" departPos="base" arrivalPos="max"/>
    <trip id="257" depart="159.34" from="C2B2" to="B0A0" departSpeed="max" departPos="base" arrivalPos="max"/>
    <trip id="258" depart="159.96" from="C2B2" to="B2C2" departSpeed="max" departPos="base" arrivalPos="max"/>
    <trip id="259" depart="160.58" from="A2A1" to="B2A2" departSpeed="max" departPos="base" arrivalPos="max"/>
    <trip id="260" depart="161.20" from="C2B2" to="B2C2" departSpeed="max" departPos="base" arrivalPos="max"/>
    <trip id="261" depart="161.82" from="C0C1" to="B0C0" departSpeed="max" departPos="base" arrivalPos="max"/>
    <trip id="262" depart="162.44" from="A2B2" to="A1A0" departSpeed="max" departPos="base" arrivalPos="max"/>
    <trip id="263" depart="163.06" from="A0A1" to="B0A0" departSpeed="max" departPos="base" arrivalPos="max"/>
    <trip id="264" depart="163.68" from="A2B2" to="C1C0" departSpeed="max" departPos="base" arrivalPos="max"/>
    <trip id="265" depart="164.30" from="C2C1" to="B0C0" departSpeed="max" departPos="base" arrivalPos="max"/>
    <trip id="266" depart="164.92" from="A0B0" to="B2C2" departSpeed="max" departPos="base" arrivalPos="max"/>
    <trip id="267" depart="165.54" from="A0B0" to="C1C0" departSpeed="max" departPos="base" arrivalPos="max"/>
    <trip id="268" depart="166.16" from="C2C1" to="C1C2" departSpeed="max" departPos="base" arrivalPos="max"/>
    <trip id="269" depart="166.78" from="C2C1" to="B0A0" departSpeed="max" departPos="base" arrivalPos="max"/>
    <trip id="270" depart="167.40" from="A0A1" to="A1A0" departSpeed="max" departPos="base" arrivalPos="max"/>