<?xml version="1.0" encoding="UTF-8"?>

<!-- generated on 2025-10-23 18:15:42 by Eclipse SUMO netconvert Version 1.24.0
<netconvertConfiguration xmlns:xsi="http://www.w3.org/2001/XMLSchema-instance" xsi:noNamespaceSchemaLocation="http://sumo.dlr.de/xsd/netconvertConfiguration.xsd">

    <input>
        <sumo-net-file value="/nfs/work/hcsoere/fast-dta/input/random/instance_1/1_n463_t36824.net.xml"/>
    </input>

    <output>
        <plain-output-prefix value="/nfs/work/hcsoere/fast-dta/input/random/instance_1/1_n463_t36824"/>
    </output>

    <processing>
        <geometry.min-radius.fix.railways value="false"/>
        <geometry.avoid-overlap value="false"/>
        <geometry.max-grade.fix value="false"/>
        <offset.disable-normalization value="true"/>
        <lefthand value="0"/>
    </processing>

    <junctions>
        <no-turnarounds value="true"/>
        <junctions.corner-detail value="5"/>
        <junctions.limit-turn-speed value="5.50"/>
        <rectangular-lane-cut value="0"/>
    </junctions>

    <pedestrian>
        <walkingareas value="0"/>
    </pedestrian>

</netconvertConfiguration>
-->

<edges version="1.20" xmlns:xsi="http://www.w3.org/2001/XMLSchema-instance" xsi:noNamespaceSchemaLocation="http://sumo.dlr.de/xsd/edges_file.xsd">
    <edge id="-10021" from="10020" to="9496" priority="-1" numLanes="1" speed="13.89"/>
    <edge id="-10131" from="10130" to="9502" priority="-1" numLanes="2" speed="13.89"/>
    <edge id="-10132" from="9500" to="9502" priority="-1" numLanes="2" speed="13.89"/>
    <edge id="-102" from="101" to="4" priority="-1" numLanes="1" speed="13.89"/>
    <edge id="-10238" from="9511" to="7290" priority="-1" numLanes="1" speed="13.89"/>
    <edge id="-10241" from="9518" to="7965" priority="-1" numLanes="2" speed="13.89"/>
    <edge id="-10250" from="10249" to="9511" priority="-1" numLanes="1" speed="13.89"/>
    <edge id="-10254" from="10253" to="9511" priority="-1" numLanes="1" speed="13.89"/>
    <edge id="-10288" from="10287" to="7294" priority="-1" numLanes="1" speed="13.89"/>
    <edge id="-10293" from="10292" to="9518" priority="-1" numLanes="1" speed="13.89"/>
    <edge id="-10309" from="10308" to="6960" priority="-1" numLanes="2" speed="13.89"/>
    <edge id="-10313" from="10312" to="6960" priority="-1" numLanes="1" speed="13.89"/>
    <edge id="-10321" from="10320" to="6960" priority="-1" numLanes="1" speed="13.89"/>
    <edge id="-10323" from="10322" to="9632" priority="-1" numLanes="1" speed="13.89"/>
    <edge id="-10325" from="10324" to="9632" priority="-1" numLanes="2" speed="13.89"/>
    <edge id="-10434" from="7625" to="9654" priority="-1" numLanes="1" speed="13.89"/>
    <edge id="-10443" from="7461" to="7131" priority="-1" numLanes="1" speed="13.89"/>
    <edge id="-10553" from="10552" to="9494" priority="-1" numLanes="1" speed="13.89"/>
    <edge id="-10555" from="10554" to="9494" priority="-1" numLanes="1" speed="13.89"/>
    <edge id="-10557" from="10556" to="9494" priority="-1" numLanes="2" speed="13.89"/>
    <edge id="-10667" from="10666" to="6841" priority="-1" numLanes="2" speed="13.89"/>
    <edge id="-10670" from="10253" to="7290" priority="-1" numLanes="2" speed="13.89"/>
    <edge id="-10672" from="10292" to="7965" priority="-1" numLanes="1" speed="13.89"/>
    <edge id="-10676" from="10666" to="10287" priority="-1" numLanes="2" speed="13.89"/>
    <edge id="-108" from="101" to="97" priority="-1" numLanes="1" speed="13.89"/>
    <edge id="-10800" from="10799" to="7463" priority="-1" numLanes="2" speed="13.89"/>
    <edge id="-10807" from="10806" to="8301" priority="-1" numLanes="1" speed="13.89"/>
    <edge id="-10814" from="10813" to="10312" priority="-1" numLanes="1" speed="13.89"/>
    <edge id="-10815" from="6600" to="10312" priority="-1" numLanes="1" speed="13.89"/>
    <edge id="-109" from="6" to="97" priority="-1" numLanes="1" speed="13.89"/>
    <edge id="-10918" from="10324" to="10322" priority="-1" numLanes="1" speed="13.89"/>
    <edge id="-10920" from="10919" to="10322" priority="-1" numLanes="2" speed="13.89"/>
    <edge id="-10926" from="10925" to="10322" priority="-1" numLanes="1" speed="13.89"/>
    <edge id="-11043" from="10799" to="5833" priority="-1" numLanes="2" speed="13.89"/>
    <edge id="-11065" from="11064" to="2676" priority="-1" numLanes="2" speed="13.89"/>
    <edge id="-11170" from="11169" to="10552" priority="-1" numLanes="1" speed="13.89"/>
    <edge id="-11178" from="11177" to="7160" priority="-1" numLanes="2" speed="13.89"/>
    <edge id="-11183" from="11182" to="10666" priority="-1" numLanes="1" speed="13.89"/>
    <edge id="-11195" from="11194" to="10666" priority="-1" numLanes="2" speed="13.89"/>
    <edge id="-1120" from="994" to="990" priority="-1" numLanes="1" speed="13.89"/>
    <edge id="-11204" from="11203" to="10292" priority="-1" numLanes="2" speed="13.89"/>
    <edge id="-11205" from="11177" to="8083" priority="-1" numLanes="2" speed="13.89"/>
    <edge id="-11208" from="11203" to="5704" priority="-1" numLanes="2" speed="13.89"/>
    <edge id="-1126" from="863" to="996" priority="-1" numLanes="2" speed="13.89"/>
    <edge id="-11340" from="7492" to="10806" priority="-1" numLanes="1" speed="13.89"/>
    <edge id="-11342" from="11341" to="10806" priority="-1" numLanes="1" speed="13.89"/>
    <edge id="-11447" from="10320" to="10813" priority="-1" numLanes="2" speed="13.89"/>
    <edge id="-11451" from="11450" to="10813" priority="-1" numLanes="2" speed="13.89"/>
    <edge id="-11453" from="11452" to="10813" priority="-1" numLanes="2" speed="13.89"/>
    <edge id="-11467" from="11466" to="9654" priority="-1" numLanes="1" speed="13.89"/>
    <edge id="-1147" from="1146" to="699" priority="-1" numLanes="2" speed="13.89"/>
    <edge id="-11479" from="11478" to="9654" priority="-1" numLanes="1" speed="13.89"/>
    <edge id="-11482" from="11481" to="7633" priority="-1" numLanes="2" speed="13.89"/>
    <edge id="-11489" from="11488" to="5833" priority="-1" numLanes="2" speed="13.89"/>
    <edge id="-11497" from="11496" to="11064" priority="-1" numLanes="2" speed="13.89"/>
    <edge id="-1150" from="1124" to="986" priority="-1" numLanes="1" speed="13.89"/>
    <edge id="-11509" from="11508" to="11064" priority="-1" numLanes="1" speed="13.89"/>
    <edge id="-11613" from="10554" to="11169" priority="-1" numLanes="2" speed="13.89"/>
    <edge id="-11617" from="11616" to="11169" priority="-1" numLanes="1" speed="13.89"/>
    <edge id="-11619" from="11618" to="11169" priority="-1" numLanes="2" speed="13.89"/>
    <edge id="-1162" from="1161" to="865" priority="-1" numLanes="2" speed="13.89"/>
    <edge id="-11623" from="10552" to="10130" priority="-1" numLanes="2" speed="13.89"/>
    <edge id="-11631" from="11630" to="10130" priority="-1" numLanes="2" speed="13.89"/>
    <edge id="-117" from="116" to="97" priority="-1" numLanes="2" speed="13.89"/>
    <edge id="-11743" from="11742" to="7965" priority="-1" numLanes="1" speed="13.89"/>
    <edge id="-11747" from="5700" to="11203" priority="-1" numLanes="2" speed="13.89"/>
    <edge id="-11754" from="11753" to="11236" priority="-1" numLanes="2" speed="13.89"/>
    <edge id="-11758" from="11757" to="11236" priority="-1" numLanes="2" speed="13.89"/>
    <edge id="-1178" from="1177" to="1146" priority="-1" numLanes="2" speed="13.89"/>
    <edge id="-1182" from="1181" to="1146" priority="-1" numLanes="1" speed="13.89"/>
    <edge id="-1184" from="1183" to="1146" priority="-1" numLanes="2" speed="13.89"/>
    <edge id="-11864" from="11863" to="11341" priority="-1" numLanes="1" speed="13.89"/>
    <edge id="-11866" from="11865" to="11341" priority="-1" numLanes="1" speed="13.89"/>
    <edge id="-11876" from="11875" to="11341" priority="-1" numLanes="1" speed="13.89"/>
    <edge id="-11881" from="6600" to="11452" priority="-1" numLanes="1" speed="13.89"/>
    <edge id="-11891" from="7118" to="7621" priority="-1" numLanes="1" speed="13.89"/>
    <edge id="-11897" from="11896" to="7621" priority="-1" numLanes="2" speed="13.89"/>
    <edge id="-11915" from="11914" to="7621" priority="-1" numLanes="2" speed="13.89"/>
    <edge id="-11916" from="11478" to="9650" priority="-1" numLanes="1" speed="13.89"/>
    <edge id="-11917" from="11481" to="9650" priority="-1" numLanes="1" speed="13.89"/>
    <edge id="-11932" from="11931" to="11481" priority="-1" numLanes="2" speed="13.89"/>
    <edge id="-11937" from="11488" to="5827" priority="-1" numLanes="1" speed="13.89"/>
    <edge id="-11944" from="11943" to="11488" priority="-1" numLanes="2" speed="13.89"/>
    <edge id="-11950" from="11949" to="11488" priority="-1" numLanes="2" speed="13.89"/>
    <edge id="-12056" from="11508" to="11496" priority="-1" numLanes="1" speed="13.89"/>
    <edge id="-12102" from="12101" to="11496" priority="-1" numLanes="1" speed="13.89"/>
    <edge id="-12207" from="11618" to="11616" priority="-1" numLanes="2" speed="13.89"/>
    <edge id="-12208" from="10552" to="11616" priority="-1" numLanes="1" speed="13.89"/>
    <edge id="-12212" from="11177" to="11630" priority="-1" numLanes="2" speed="13.89"/>
    <edge id="-12220" from="12219" to="11630" priority="-1" numLanes="1" speed="13.89"/>
    <edge id="-12224" from="12223" to="11194" priority="-1" numLanes="2" speed="13.89"/>
    <edge id="-12228" from="11742" to="7875" priority="-1" numLanes="1" speed="13.89"/>
    <edge id="-12232" from="12231" to="11742" priority="-1" numLanes="1" speed="13.89"/>
    <edge id="-12238" from="12237" to="11742" priority="-1" numLanes="1" speed="13.89"/>
    <edge id="-12246" from="7468" to="11757" priority="-1" numLanes="1" speed="13.89"/>
    <edge id="-12252" from="12251" to="11757" priority="-1" numLanes="1" speed="13.89"/>
    <edge id="-12254" from="11865" to="11863" priority="-1" numLanes="1" speed="13.89"/>
    <edge id="-12261" from="12260" to="11863" priority="-1" numLanes="2" speed="13.89"/>
    <edge id="-12262" from="12260" to="11865" priority="-1" numLanes="2" speed="13.89"/>
    <edge id="-12292" from="12291" to="11865" priority="-1" numLanes="2" speed="13.89"/>
    <edge id="-12300" from="12299" to="11875" priority="-1" numLanes="2" speed="13.89"/>
    <edge id="-12302" from="12301" to="6616" priority="-1" numLanes="2" speed="13.89"/>
    <edge id="-12304" from="12303" to="6616" priority="-1" numLanes="2" speed="13.89"/>
    <edge id="-12312" from="12311" to="10919" priority="-1" numLanes="2" speed="13.89"/>
    <edge id="-12319" from="12303" to="5436" priority="-1" numLanes="1" speed="13.89"/>
    <edge id="-12322" from="7118" to="11914" priority="-1" numLanes="2" speed="13.89"/>
    <edge id="-12328" from="12327" to="11931" priority="-1" numLanes="2" speed="13.89"/>
    <edge id="-12340" from="12339" to="11931" priority="-1" numLanes="2" speed="13.89"/>
    <edge id="-12344" from="12343" to="11931" priority="-1" numLanes="2" speed="13.89"/>
    <edge id="-12346" from="12345" to="6674" priority="-1" numLanes="1" speed="13.89"/>
    <edge id="-12350" from="12349" to="6674" priority="-1" numLanes="1" speed="13.89"/>
    <edge id="-12359" from="12358" to="11943" priority="-1" numLanes="2" speed="13.89"/>
    <edge id="-12361" from="12358" to="11949" priority="-1" numLanes="1" speed="13.89"/>
    <edge id="-12367" from="11508" to="12101" priority="-1" numLanes="1" speed="13.89"/>
    <edge id="-12368" from="12311" to="12101" priority="-1" numLanes="2" speed="13.89"/>
    <edge id="-12380" from="12379" to="10556" priority="-1" numLanes="1" speed="13.89"/>
    <edge id="-12387" from="12386" to="12219" priority="-1" numLanes="2" speed="13.89"/>
    <edge id="-12397" from="12396" to="12219" priority="-1" numLanes="2" speed="13.89"/>
    <edge id="-12502" from="12501" to="12223" priority="-1" numLanes="2" speed="13.89"/>
    <edge id="-12510" from="12509" to="12223" priority="-1" numLanes="2" speed="13.89"/>
    <edge id="-12512" from="12511" to="12223" priority="-1" numLanes="2" speed="13.89"/>
    <edge id="-12516" from="12237" to="12231" priority="-1" numLanes="1" speed="13.89"/>
    <edge id="-12522" from="12521" to="12231" priority="-1" numLanes="1" speed="13.89"/>
    <edge id="-12532" from="12531" to="12251" priority="-1" numLanes="1" speed="13.89"/>
    <edge id="-12534" from="12533" to="12251" priority="-1" numLanes="2" speed="13.89"/>
    <edge id="-12552" from="12551" to="12251" priority="-1" numLanes="1" speed="13.89"/>
    <edge id="-12554" from="12291" to="12260" priority="-1" numLanes="1" speed="13.89"/>
    <edge id="-12555" from="12531" to="12291" priority="-1" numLanes="2" speed="13.89"/>
    <edge id="-12557" from="12556" to="12299" priority="-1" numLanes="2" speed="13.89"/>
    <edge id="-12559" from="12558" to="12299" priority="-1" numLanes="1" speed="13.89"/>
    <edge id="-12560" from="5328" to="12301" priority="-1" numLanes="1" speed="13.89"/>
    <edge id="-12608" from="12607" to="12301" priority="-1" numLanes="1" speed="13.89"/>
    <edge id="-12621" from="12345" to="5436" priority="-1" numLanes="2" speed="13.89"/>
    <edge id="-12728" from="12727" to="11466" priority="-1" numLanes="1" speed="13.89"/>
    <edge id="-12731" from="12727" to="7625" priority="-1" numLanes="2" speed="13.89"/>
    <edge id="-12736" from="12349" to="12345" priority="-1" numLanes="2" speed="13.89"/>
    <edge id="-12738" from="12737" to="12349" priority="-1" numLanes="1" speed="13.89"/>
    <edge id="-12770" from="12769" to="12349" priority="-1" numLanes="2" speed="13.89"/>
    <edge id="-12876" from="12875" to="12358" priority="-1" numLanes="1" speed="13.89"/>
    <edge id="-12884" from="12883" to="12358" priority="-1" numLanes="1" speed="13.89"/>
    <edge id="-12886" from="12883" to="11949" priority="-1" numLanes="2" speed="13.89"/>
    <edge id="-12904" from="12903" to="12379" priority="-1" numLanes="1" speed="13.89"/>
    <edge id="-12912" from="12911" to="12379" priority="-1" numLanes="1" speed="13.89"/>
    <edge id="-13015" from="12396" to="12386" priority="-1" numLanes="2" speed="13.89"/>
    <edge id="-13039" from="13038" to="12386" priority="-1" numLanes="2" speed="13.89"/>
    <edge id="-13144" from="12511" to="12509" priority="-1" numLanes="1" speed="13.89"/>
    <edge id="-13146" from="11194" to="12511" priority="-1" numLanes="2" speed="13.89"/>
    <edge id="-13150" from="13149" to="12511" priority="-1" numLanes="1" speed="13.89"/>
    <edge id="-13159" from="13038" to="8083" priority="-1" numLanes="2" speed="13.89"/>
    <edge id="-13184" from="13183" to="12556" priority="-1" numLanes="1" speed="13.89"/>
    <edge id="-13192" from="13191" to="12556" priority="-1" numLanes="2" speed="13.89"/>
    <edge id="-13194" from="13193" to="12558" priority="-1" numLanes="2" speed="13.89"/>
    <edge id="-13198" from="13197" to="12558" priority="-1" numLanes="2" speed="13.89"/>
    <edge id="-13202" from="13201" to="12558" priority="-1" numLanes="2" speed="13.89"/>
    <edge id="-13208" from="13207" to="12607" priority="-1" numLanes="2" speed="13.89"/>
    <edge id="-13312" from="13311" to="12305" priority="-1" numLanes="1" speed="13.89"/>
    <edge id="-13440" from="5833" to="11943" priority="-1" numLanes="1" speed="13.89"/>
    <edge id="-13441" from="11753" to="11943" priority="-1" numLanes="2" speed="13.89"/>
    <edge id="-13453" from="10556" to="12911" priority="-1" numLanes="1" speed="13.89"/>
    <edge id="-13559" from="13558" to="13016" priority="-1" numLanes="1" speed="13.89"/>
    <edge id="-13560" from="12396" to="13016" priority="-1" numLanes="1" speed="13.89"/>
    <edge id="-13562" from="13561" to="13016" priority="-1" numLanes="2" speed="13.89"/>
    <edge id="-13563" from="13558" to="13038" priority="-1" numLanes="2" speed="13.89"/>
    <edge id="-13572" from="13571" to="11182" priority="-1" numLanes="2" speed="13.89"/>
    <edge id="-13579" from="13571" to="6845" priority="-1" numLanes="1" speed="13.89"/>
    <edge id="-13585" from="13584" to="12521" priority="-1" numLanes="1" speed="13.89"/>
    <edge id="-13587" from="13584" to="12237" priority="-1" numLanes="1" speed="13.89"/>
    <edge id="-13604" from="13603" to="13197" priority="-1" numLanes="2" speed="13.89"/>
    <edge id="-13606" from="13605" to="13197" priority="-1" numLanes="2" speed="13.89"/>
    <edge id="-13610" from="13609" to="13197" priority="-1" numLanes="2" speed="13.89"/>
    <edge id="-13719" from="13718" to="13311" priority="-1" numLanes="1" speed="13.89"/>
    <edge id="-13831" from="13830" to="10925" priority="-1" numLanes="2" speed="13.89"/>
    <edge id="-13833" from="13830" to="10324" priority="-1" numLanes="1" speed="13.89"/>
    <edge id="-1393" from="1392" to="180" priority="-1" numLanes="1" speed="13.89"/>
    <edge id="-1394" from="1392" to="314" priority="-1" numLanes="2" speed="13.89"/>
    <edge id="-13963" from="13962" to="306" priority="-1" numLanes="2" speed="13.89"/>
    <edge id="-14073" from="13561" to="13558" priority="-1" numLanes="1" speed="13.89"/>
    <edge id="-14095" from="14094" to="13558" priority="-1" numLanes="1" speed="13.89"/>
    <edge id="-14103" from="14102" to="13561" priority="-1" numLanes="2" speed="13.89"/>
    <edge id="-14107" from="14106" to="13561" priority="-1" numLanes="1" speed="13.89"/>
    <edge id="-14109" from="6841" to="13571" priority="-1" numLanes="1" speed="13.89"/>
    <edge id="-14113" from="14112" to="13571" priority="-1" numLanes="1" speed="13.89"/>
    <edge id="-14220" from="13603" to="13584" priority="-1" numLanes="1" speed="13.89"/>
    <edge id="-14222" from="14221" to="12521" priority="-1" numLanes="1" speed="13.89"/>
    <edge id="-14224" from="14223" to="12521" priority="-1" numLanes="2" speed="13.89"/>
    <edge id="-14227" from="10249" to="10287" priority="-1" numLanes="2" speed="13.89"/>
    <edge id="-14232" from="14231" to="12531" priority="-1" numLanes="2" speed="13.89"/>
    <edge id="-14239" from="13605" to="13603" priority="-1" numLanes="2" speed="13.89"/>
    <edge id="-14240" from="13201" to="13603" priority="-1" numLanes="1" speed="13.89"/>
    <edge id="-14241" from="13609" to="13605" priority="-1" numLanes="1" speed="13.89"/>
    <edge id="-14249" from="14248" to="13609" priority="-1" numLanes="2" speed="13.89"/>
    <edge id="-14353" from="12305" to="13718" priority="-1" numLanes="1" speed="13.89"/>
    <edge id="-14363" from="14362" to="13830" priority="-1" numLanes="2" speed="13.89"/>
    <edge id="-14369" from="14368" to="13830" priority="-1" numLanes="2" speed="13.89"/>
    <edge id="-14371" from="14370" to="10925" priority="-1" numLanes="1" speed="13.89"/>
    <edge id="-14484" from="14483" to="12339" priority="-1" numLanes="1" speed="13.89"/>
    <edge id="-14490" from="13962" to="3712" priority="-1" numLanes="1" speed="13.89"/>
    <edge id="-14496" from="13962" to="4910" priority="-1" numLanes="1" speed="13.89"/>
    <edge id="-14505" from="14106" to="14094" priority="-1" numLanes="2" speed="13.89"/>
    <edge id="-14515" from="14514" to="14094" priority="-1" numLanes="1" speed="13.89"/>
    <edge id="-14516" from="14106" to="14102" priority="-1" numLanes="1" speed="13.89"/>
    <edge id="-14517" from="12396" to="14102" priority="-1" numLanes="1" speed="13.89"/>
    <edge id="-14518" from="11618" to="14102" priority="-1" numLanes="2" speed="13.89"/>
    <edge id="-146" from="145" to="116" priority="-1" numLanes="1" speed="13.89"/>
    <edge id="-14629" from="14628" to="10249" priority="-1" numLanes="2" speed="13.89"/>
    <edge id="-14633" from="14632" to="10253" priority="-1" numLanes="2" speed="13.89"/>
    <edge id="-14637" from="12551" to="14231" priority="-1" numLanes="1" speed="13.89"/>
    <edge id="-14643" from="14642" to="14231" priority="-1" numLanes="2" speed="13.89"/>
    <edge id="-14647" from="14646" to="14231" priority="-1" numLanes="2" speed="13.89"/>
    <edge id="-14654" from="14221" to="14248" priority="-1" numLanes="2" speed="13.89"/>
    <edge id="-14666" from="14368" to="14362" priority="-1" numLanes="2" speed="13.89"/>
    <edge id="-14667" from="14370" to="14362" priority="-1" numLanes="1" speed="13.89"/>
    <edge id="-14668" from="10925" to="14362" priority="-1" numLanes="1" speed="13.89"/>
    <edge id="-14671" from="14670" to="14370" priority="-1" numLanes="2" speed="13.89"/>
    <edge id="-14684" from="14683" to="11478" priority="-1" numLanes="1" speed="13.89"/>
    <edge id="-14689" from="14688" to="14483" priority="-1" numLanes="1" speed="13.89"/>
    <edge id="-14703" from="14702" to="14483" priority="-1" numLanes="2" speed="13.89"/>
    <edge id="-148" from="145" to="101" priority="-1" numLanes="2" speed="13.89"/>
    <edge id="-14814" from="14813" to="12883" priority="-1" numLanes="2" speed="13.89"/>
    <edge id="-14824" from="14823" to="14514" priority="-1" numLanes="2" speed="13.89"/>
    <edge id="-14826" from="14825" to="14514" priority="-1" numLanes="2" speed="13.89"/>
    <edge id="-14830" from="14829" to="14514" priority="-1" numLanes="2" speed="13.89"/>
    <edge id="-14831" from="11182" to="14112" priority="-1" numLanes="1" speed="13.89"/>
    <edge id="-14843" from="14842" to="14112" priority="-1" numLanes="1" speed="13.89"/>
    <edge id="-14847" from="14846" to="14112" priority="-1" numLanes="2" speed="13.89"/>
    <edge id="-14952" from="14846" to="11194" priority="-1" numLanes="2" speed="13.89"/>
    <edge id="-14956" from="14632" to="14628" priority="-1" numLanes="2" speed="13.89"/>
    <edge id="-14958" from="14957" to="14628" priority="-1" numLanes="1" speed="13.89"/>
    <edge id="-15062" from="14646" to="14642" priority="-1" numLanes="1" speed="13.89"/>
    <edge id="-15066" from="15065" to="14642" priority="-1" numLanes="2" speed="13.89"/>
    <edge id="-1512" from="1511" to="1124" priority="-1" numLanes="2" speed="13.89"/>
    <edge id="-15209" from="15208" to="12551" priority="-1" numLanes="2" speed="13.89"/>
    <edge id="-15225" from="15224" to="10919" priority="-1" numLanes="2" speed="13.89"/>
    <edge id="-15228" from="10925" to="14670" priority="-1" numLanes="1" speed="13.89"/>
    <edge id="-15229" from="15224" to="14670" priority="-1" numLanes="1" speed="13.89"/>
    <edge id="-15231" from="15230" to="10324" priority="-1" numLanes="2" speed="13.89"/>
    <edge id="-15237" from="15236" to="10324" priority="-1" numLanes="1" speed="13.89"/>
    <edge id="-15240" from="14683" to="11466" priority="-1" numLanes="2" speed="13.89"/>
    <edge id="-15242" from="15241" to="14683" priority="-1" numLanes="2" speed="13.89"/>
    <edge id="-1525" from="1524" to="18" priority="-1" numLanes="1" speed="13.89"/>
    <edge id="-15256" from="15255" to="14683" priority="-1" numLanes="2" speed="13.89"/>
    <edge id="-15257" from="14702" to="11478" priority="-1" numLanes="2" speed="13.89"/>
    <edge id="-15258" from="15255" to="11478" priority="-1" numLanes="1" speed="13.89"/>
    <edge id="-15361" from="14702" to="14688" priority="-1" numLanes="2" speed="13.89"/>
    <edge id="-15362" from="12339" to="14688" priority="-1" numLanes="1" speed="13.89"/>
    <edge id="-15369" from="14813" to="12875" priority="-1" numLanes="2" speed="13.89"/>
    <edge id="-15373" from="15372" to="12875" priority="-1" numLanes="1" speed="13.89"/>
    <edge id="-15375" from="15374" to="14813" priority="-1" numLanes="1" speed="13.89"/>
    <edge id="-1538" from="1537" to="1392" priority="-1" numLanes="1" speed="13.89"/>
    <edge id="-15485" from="15484" to="14823" priority="-1" numLanes="2" speed="13.89"/>
    <edge id="-15489" from="15488" to="14823" priority="-1" numLanes="2" speed="13.89"/>
    <edge id="-15495" from="15494" to="14825" priority="-1" numLanes="2" speed="13.89"/>
    <edge id="-15499" from="15498" to="14825" priority="-1" numLanes="2" speed="13.89"/>
    <edge id="-155" from="154" to="145" priority="-1" numLanes="1" speed="13.89"/>
    <edge id="-15500" from="15498" to="14829" priority="-1" numLanes="2" speed="13.89"/>
    <edge id="-15502" from="15501" to="14829" priority="-1" numLanes="1" speed="13.89"/>
    <edge id="-15617" from="15616" to="15065" priority="-1" numLanes="1" speed="13.89"/>
    <edge id="-15619" from="15618" to="15065" priority="-1" numLanes="2" speed="13.89"/>
    <edge id="-15621" from="15620" to="15065" priority="-1" numLanes="2" speed="13.89"/>
    <edge id="-15622" from="14646" to="15095" priority="-1" numLanes="1" speed="13.89"/>
    <edge id="-15623" from="15618" to="15095" priority="-1" numLanes="2" speed="13.89"/>
    <edge id="-15626" from="15625" to="15208" priority="-1" numLanes="2" speed="13.89"/>
    <edge id="-15630" from="15629" to="15208" priority="-1" numLanes="1" speed="13.89"/>
    <edge id="-15634" from="15633" to="15208" priority="-1" numLanes="1" speed="13.89"/>
    <edge id="-15648" from="15224" to="12311" priority="-1" numLanes="2" speed="13.89"/>
    <edge id="-15660" from="15659" to="10919" priority="-1" numLanes="2" speed="13.89"/>
    <edge id="-15661" from="15230" to="14368" priority="-1" numLanes="2" speed="13.89"/>
    <edge id="-15662" from="15236" to="15230" priority="-1" numLanes="1" speed="13.89"/>
    <edge id="-15678" from="15677" to="15230" priority="-1" numLanes="1" speed="13.89"/>
    <edge id="-15679" from="15677" to="15236" priority="-1" numLanes="1" speed="13.89"/>
    <edge id="-15681" from="15680" to="15236" priority="-1" numLanes="2" speed="13.89"/>
    <edge id="-15695" from="15694" to="11896" priority="-1" numLanes="1" speed="13.89"/>
    <edge id="-15698" from="15255" to="15241" priority="-1" numLanes="2" speed="13.89"/>
    <edge id="-15699" from="8971" to="15241" priority="-1" numLanes="2" speed="13.89"/>
    <edge id="-15701" from="15700" to="15255" priority="-1" numLanes="2" speed="13.89"/>
    <edge id="-15717" from="15716" to="15255" priority="-1" numLanes="2" speed="13.89"/>
    <edge id="-1572" from="1571" to="1392" priority="-1" numLanes="1" speed="13.89"/>
    <edge id="-15725" from="15724" to="5827" priority="-1" numLanes="2" speed="13.89"/>
    <edge id="-15731" from="15730" to="5827" priority="-1" numLanes="1" speed="13.89"/>
    <edge id="-15835" from="15834" to="15374" priority="-1" numLanes="2" speed="13.89"/>
    <edge id="-15837" from="15836" to="15374" priority="-1" numLanes="1" speed="13.89"/>
    <edge id="-15855" from="15488" to="15484" priority="-1" numLanes="2" speed="13.89"/>
    <edge id="-15862" from="15861" to="15501" priority="-1" numLanes="2" speed="13.89"/>
    <edge id="-15864" from="15863" to="15501" priority="-1" numLanes="1" speed="13.89"/>
    <edge id="-15872" from="15871" to="15501" priority="-1" numLanes="2" speed="13.89"/>
    <edge id="-15873" from="12501" to="14846" priority="-1" numLanes="2" speed="13.89"/>
    <edge id="-15983" from="15633" to="11753" priority="-1" numLanes="1" speed="13.89"/>
    <edge id="-15988" from="15629" to="15625" priority="-1" numLanes="2" speed="13.89"/>
    <edge id="-15990" from="12551" to="15629" priority="-1" numLanes="2" speed="13.89"/>
    <edge id="-15991" from="11757" to="15633" priority="-1" numLanes="1" speed="13.89"/>
    <edge id="-15998" from="15997" to="12303" priority="-1" numLanes="1" speed="13.89"/>
    <edge id="-16001" from="15997" to="12305" priority="-1" numLanes="1" speed="13.89"/>
    <edge id="-16005" from="15680" to="10320" priority="-1" numLanes="2" speed="13.89"/>
    <edge id="-16007" from="15659" to="12311" priority="-1" numLanes="1" speed="13.89"/>
    <edge id="-16010" from="15680" to="15677" priority="-1" numLanes="2" speed="13.89"/>
    <edge id="-16028" from="16027" to="15677" priority="-1" numLanes="1" speed="13.89"/>
    <edge id="-16029" from="10308" to="15680" priority="-1" numLanes="2" speed="13.89"/>
    <edge id="-16030" from="12327" to="15694" priority="-1" numLanes="2" speed="13.89"/>
    <edge id="-16034" from="16033" to="15694" priority="-1" numLanes="2" speed="13.89"/>
    <edge id="-16137" from="16033" to="11914" priority="-1" numLanes="1" speed="13.89"/>
    <edge id="-16140" from="16139" to="15716" priority="-1" numLanes="2" speed="13.89"/>
    <edge id="-16143" from="16033" to="12343" priority="-1" numLanes="2" speed="13.89"/>
    <edge id="-16259" from="16258" to="9209" priority="-1" numLanes="2" speed="13.89"/>
    <edge id="-16263" from="16262" to="9209" priority="-1" numLanes="2" speed="13.89"/>
    <edge id="-16276" from="16275" to="15498" priority="-1" numLanes="1" speed="13.89"/>
    <edge id="-16278" from="15863" to="15861" priority="-1" numLanes="1" speed="13.89"/>
    <edge id="-16280" from="16279" to="15861" priority="-1" numLanes="2" speed="13.89"/>
    <edge id="-16281" from="15871" to="15863" priority="-1" numLanes="2" speed="13.89"/>
    <edge id="-16283" from="16275" to="15871" priority="-1" numLanes="1" speed="13.89"/>
    <edge id="-16299" from="16298" to="12533" priority="-1" numLanes="1" speed="13.89"/>
    <edge id="-16309" from="16308" to="12533" priority="-1" numLanes="1" speed="13.89"/>
    <edge id="-16417" from="16416" to="15997" priority="-1" numLanes="2" speed="13.89"/>
    <edge id="-16419" from="16418" to="15997" priority="-1" numLanes="1" speed="13.89"/>
    <edge id="-16420" from="16416" to="12303" priority="-1" numLanes="2" speed="13.89"/>
    <edge id="-16429" from="16428" to="16027" priority="-1" numLanes="2" speed="13.89"/>
    <edge id="-1682" from="1511" to="986" priority="-1" numLanes="2" speed="13.89"/>
    <edge id="-1685" from="1571" to="355" priority="-1" numLanes="2" speed="13.89"/>
    <edge id="-181" from="180" to="145" priority="-1" numLanes="1" speed="13.89"/>
    <edge id="-1895" from="1894" to="206" priority="-1" numLanes="1" speed="13.89"/>
    <edge id="-19" from="18" to="1" priority="-1" numLanes="2" speed="13.89"/>
    <edge id="-1922" from="1921" to="1894" priority="-1" numLanes="2" speed="13.89"/>
    <edge id="-1924" from="1923" to="1894" priority="-1" numLanes="2" speed="13.89"/>
    <edge id="-1926" from="1925" to="1894" priority="-1" numLanes="2" speed="13.89"/>
    <edge id="-197" from="196" to="154" priority="-1" numLanes="2" speed="13.89"/>
    <edge id="-2052" from="2051" to="1181" priority="-1" numLanes="2" speed="13.89"/>