<?xml version="1.0" encoding="UTF-8"?>

<!-- Merged from multiple trip files by merge_trips.py -->

<routes xmlns:xsi="http://www.w3.org/2001/XMLSchema-instance"
    xsi:noNamespaceSchemaLocation="http://sumo.dlr.de/xsd/routes_file.xsd">
    <trip id="0" depart="0.00" from="17660" to="-1397" />
    <trip id="1" depart="30.85" from="-46546" to="-47540" />
    <trip id="2" depart="61.70" from="32614" to="4723" />
    <trip id="3" depart="92.55" from="59346" to="-2460" />
    <trip id="4" depart="123.40" from="-65372" to="-15" />
    <trip id="5" depart="154.25" from="-38528" to="24910" />
    <trip id="6" depart="185.10" from="-13210" to="-43154" />
    <trip id="7" depart="215.95" from="19556" to="30176" />
    <trip id="8" depart="246.80" from="-38842" to="35601" />
    <trip id="9" depart="277.65" from="45499" to="-1109" />
    <trip id="10" depart="308.50" from="45006" to="49937" />
    <trip id="11" depart="339.35" from="-55976" to="-35588" />
    <trip id="12" depart="370.20" from="70673" to="-68067" />
    <trip id="13" depart="401.05" from="-22208" to="-2631" />
    <trip id="14" depart="431.90" from="51693" to="37385" />
    <trip id="15" depart="462.75" from="45069" to="543" />
    <trip id="16" depart="493.60" from="-75416" to="76284" />
    <trip id="17" depart="524.45" from="-60055" to="30986" />
    <trip id="18" depart="555.30" from="485" to="39406" />
    <trip id="19" depart="586.15" from="54040" to="33805" />
    <trip id="20" depart="617.00" from="28950" to="-1768" />
    <trip id="21" depart="647.85" from="-39658" to="-59641" />
    <trip id="22" depart="678.70" from="-20359" to="-493" />
    <trip id="23" depart="709.55" from="-23032" to="-57713" />
    <trip id="24" depart="740.40" from="16837" to="-74354" />
    <trip id="25" depart="771.25" from="-58654" to="-45534" />
    <trip id="26" depart="802.10" from="-45481" to="75151" />
    <trip id="27" depart="832.95" from="19026" to="37980" />
    <trip id="28" depart="863.80" from="-32432" to="5428" />
    <trip id="29" depart="894.65" from="-31179" to="-8883" />
    <trip id="30" depart="925.50" from="8889" to="42179" />
    <trip id="31" depart="956.35" from="-76198" to="47951" />
    <trip id="32" depart="987.20" from="51051" to="60009" />
    <trip id="33" depart="1018.05" from="-39910" to="-15410" />
    <trip id="34" depart="1048.90" from="-51772" to="-55859" />
    <trip id="35" depart="1079.75" from="-37385" to="75416" />
    <trip id="36" depart="1110.60" from="56512" to="-64325" />
    <trip id="37" depart="1141.45" from="20479" to="10791" />
    <trip id="38" depart="1172.30" from="63141" to="1900" />
    <trip id="39" depart="1203.15" from="-45054" to="-51771" />
    <trip id="40" depart="1234.00" from="-76254" to="-54603" />
    <trip id="41" depart="1264.85" from="-9272" to="72705" />
    <trip id="42" depart="1295.70" from="-63275" to="-471" />
    <trip id="43" depart="1326.55" from="9857" to="25734" />
    <trip id="44" depart="1357.40" from="-21949" to="-18093" />
    <trip id="45" depart="1388.25" from="-239" to="4072" />
    <trip id="46" depart="1419.10" from="42134" to="1390" />
    <trip id="47" depart="1449.95" from="-18376" to="-9123" />
    <trip id="48" depart="1480.80" from="9701" to="28756" />
    <trip id="49" depart="1511.65" from="73289" to="68950" />
    <trip id="50" depart="1542.50" from="-11453" to="5300" />
    <trip id="51" depart="1573.35" from="24607" to="2940" />
    <trip id="52" depart="1604.20" from="-4547" to="42240" />
    <trip id="53" depart="1635.05" from="-24463" to="15585" />
    <trip id="54" depart="1665.90" from="-68547" to="75875" />
    <trip id="55" depart="1696.75" from="56390" to="-54756" />
    <trip id="56" depart="1727.60" from="-73405" to="-39659" />
    <trip id="57" depart="1758.45" from="62654" to="70279" />
    <trip id="58" depart="1789.30" from="-493" to="42134" />
    <trip id="59" depart="1820.15" from="12384" to="-35165" />
    <trip id="60" depart="1851.00" from="37129" to="29664" />
    <trip id="61" depart="1881.85" from="39987" to="28925" />
    <trip id="62" depart="1912.70" from="-10245" to="-66062" />
    <trip id="63" depart="1943.55" from="-12224" to="74861" />
    <trip id="64" depart="1974.40" from="56762" to="66076" />
    <trip id="65" depart="2005.25" from="-51046" to="-20301" />
    <trip id="66" depart="2036.10" from="56733" to="75432" />
    <trip id="67" depart="2066.95" from="-21170" to="22613" />
    <trip id="68" depart="2097.80" from="-18915" to="58106" />
    <trip id="69" depart="2128.65" from="37690" to="-30861" />
    <trip id="70" depart="2159.50" from="-71350" to="30734" />
    <trip id="71" depart="2190.35" from="-45059" to="70414" />
    <trip id="72" depart="2221.20" from="-6572" to="-45712" />
    <trip id="73" depart="2252.05" from="-75426" to="54398" />
    <trip id="74" depart="2282.90" from="-36008" to="-63647" />
    <trip id="75" depart="2313.75" from="9363" to="4304" />
    <trip id="76" depart="2344.60" from="-67049" to="27211" />
    <trip id="77" depart="2375.45" from="-25719" to="-47812" />
    <trip id="78" depart="2406.30" from="-55144" to="35570" />
    <trip id="79" depart="2437.15" from="-39981" to="-4725" />
    <trip id="80" depart="2468.00" from="-1914" to="41576" />
    <trip id="81" depart="2498.85" from="-39906" to="73053" />
    <trip id="82" depart="2529.70" from="53453" to="-21813" />
    <trip id="83" depart="2560.55" from="-41576" to="46486" />
    <trip id="84" depart="2591.40" from="-37846" to="-3163" />
    <trip id="85" depart="2622.25" from="66698" to="3347" />
    <trip id="86" depart="2653.10" from="-70753" to="60802" />
    <trip id="87" depart="2683.95" from="45076" to="-41896" />
    <trip id="88" depart="2714.80" from="-22734" to="15" />
    <trip id="89" depart="2745.65" from="-65771" to="20301" />
    <trip id="90" depart="2776.50" from="31784" to="46788" />
    <trip id="91" depart="2807.35" from="7958" to="-26622" />
    <trip id="92" depart="2838.20" from="-63544" to="-68391" />
    <trip id="93" depart="2869.05" from="54040" to="-51901" />
    <trip id="94" depart="2899.90" from="-34489" to="17669" />
    <trip id="95" depart="2930.75" from="-65265" to="-57826" />
    <trip id="96" depart="2961.60" from="-42263" to="74497" />
    <trip id="97" depart="2992.45" from="-67386" to="68962" />
    <trip id="98" depart="3023.30" from="-76044" to="-18807" />
    <trip id="99" depart="3054.15" from="9947" to="66575" />
    <trip id="100" depart="3085.00" from="72776" to="74620" />
    <trip id="101" depart="3115.85" from="5175" to="-37340" />
    <trip id="102" depart="3146.70" from="-72491" to="-46325" />
    <trip id="103" depart="3177.55" from="-63302" to="-20326" />
    <trip id="104" depart="3208.40" from="-60175" to="8822" />
    <trip id="105" depart="3239.25" from="-45060" to="60793" />
    <trip id="106" depart="3270.10" from="-68658" to="14208" />
    <trip id="107" depart="3300.95" from="70674" to="9711" />
    <trip id="108" depart="3331.80" from="-76192" to="52768" />
    <trip id="109" depart="3362.65" from="-3015" to="-60771" />
    <trip id="110" depart="3393.50" from="72743" to="34202" />
    <trip id="111" depart="3424.35" from="-75518" to="56712" />
    <trip id="112" depart="3455.20" from="-17025" to="34859" />
    <trip id="113" depart="3486.05" from="-7346" to="68207" />
    <trip id="114" depart="3516.90" from="-30439" to="76172" />
    <trip id="115" depart="3547.75" from="-20365" to="-4085" />
    <trip id="116" depart="3578.60" from="10397" to="47072" />
    <trip id="117" depart="3609.45" from="-4084" to="-30022" />
    <trip id="118" depart="3640.30" from="59" to="-5175" />
    <trip id="119" depart="3671.15" from="10381" to="39511" />
    <trip id="120" depart="3702.00" from="-64948" to="34824" />
    <trip id="121" depart="3732.85" from="-74861" to="75038" />
    <trip id="122" depart="3763.70" from="-36405" to="52444" />
    <trip id="123" depart="3794.55" from="-41625" to="10791" />
    <trip id="124" depart="3825.40" from="22891" to="-60979" />
    <trip id="125" depart="3856.25" from="-51783" to="57289" />
    <trip id="126" depart="3887.10" from="-19208" to="18915" />
    <trip id="127" depart="3917.95" from="9889" to="9730" />
    <trip id="128" depart="3948.80" from="-19477" to="-46179" />
    <trip id="129" depart="3979.65" from="-45060" to="74922" />
    <trip id="130" depart="4010.50" from="571" to="71472" />
    <trip id="131" depart="4041.35" from="-58415" to="-35895" />
    <trip id="132" depart="4072.20" from="49219" to="50721" />
    <trip id="133" depart="4103.05" from="12735" to="8894" />
    <trip id="134" depart="4133.90" from="20326" to="-11146" />
    <trip id="135" depart="4164.75" from="46540" to="-60965" />
    <trip id="136" depart="4195.60" from="21534" to="75259" />
    <trip id="137" depart="4226.45" from="-27683" to="-29447" />
    <trip id="138" depart="4257.30" from="-23658" to="31179" />
    <trip id="139" depart="4288.15" from="-46329" to="37640" />
    <trip id="140" depart="4319.00" from="3016" to="-44498" />
    <trip id="141" depart="4349.85" from="16566" to="-54880" />
    <trip id="142" depart="4380.70" from="-72666" to="73049" />
    <trip id="143" depart="4411.55" from="51634" to="-25857" />
    <trip id="144" depart="4442.40" from="-65771" to="-57299" />
    <trip id="145" depart="4473.25" from="-10398" to="5930" />
    <trip id="146" depart="4504.10" from="17134" to="-54492" />
    <trip id="147" depart="4534.95" from="3332" to="30871" />
    <trip id="148" depart="4565.80" from="-66068" to="-11444" />
    <trip id="149" depart="4596.65" from="-19972" to="72217" />
    <trip id="150" depart="4627.50" from="60940" to="30290" />
    <trip id="151" depart="4658.35" from="493" to="34489" />
    <trip id="152" depart="4689.20" from="-29445" to="-30845" />
    <trip id="153" depart="4720.05" from="-51074" to="72784" />
    <trip id="154" depart="4750.90" from="42697" to="68950" />
    <trip id="155" depart="4781.75" from="6024" to="-45553" />
    <trip id="156" depart="4812.60" from="-42262" to="-27673" />
    <trip id="157" depart="4843.45" from="40154" to="72217" />
    <trip id="158" depart="4874.30" from="-63918" to="39658" />
    <trip id="159" depart="4905.15" from="-3014" to="74893" />
    <trip id="160" depart="4936.00" from="54431" to="76406" />
    <trip id="161" depart="4966.85" from="45559" to="72106" />
    <trip id="162" depart="4997.70" from="-13" to="55027" />
    <trip id="163" depart="5028.55" from="-54413" to="74895" />
    <trip id="164" depart="5059.40" from="44166" to="69551" />
    <trip id="165" depart="5090.25" from="45559" to="-554" />
    <trip id="166" depart="5121.10" from="41599" to="-28537" />
    <trip id="167" depart="5151.95" from="55871" to="68936" />
    <trip id="168" depart="5182.80" from="-38897" to="64790" />
    <trip id="169" depart="5213.65" from="-68962" to="-62197" />
    <trip id="170" depart="5244.50" from="4244" to="-484" />
    <trip id="171" depart="5275.35" from="-12738" to="-42134" />
    <trip id="172" depart="5306.20" from="-53681" to="69565" />
    <trip id="173" depart="5337.05" from="72670" to="-57865" />
    <trip id="174" depart="5367.90" from="17987" to="11289" />
    <trip id="175" depart="5398.75" from="76044" to="29330" />
    <trip id="176" depart="5429.60" from="67314" to="-29447" />
    <trip id="177" depart="5460.45" from="73053" to="-39658" />
    <trip id="178" depart="5491.30" from="71969" to="-55015" />
    <trip id="179" depart="5522.15" from="-23681" to="15583" />
    <trip id="180" depart="5553.00" from="3165" to="-64075" />
    <trip id="181" depart="5583.85" from="1183" to="25884" />
    <trip id="182" depart="5614.70" from="-60796" to="33654" />
    <trip id="183" depart="5645.55" from="-430" to="51623" />
    <trip id="184" depart="5676.40" from="-10337" to="74620" />
    <trip id="185" depart="5707.25" from="-75420" to="52889" />
    <trip id="186" depart="5738.10" from="33474" to="46546" />
    <trip id="187" depart="5768.95" from="-58106" to="-21546" />
    <trip id="188" depart="5799.80" from="21710" to="-67262" />
    <trip id="189" depart="5830.65" from="-51702" to="67822" />
    <trip id="190" depart="5861.50" from="30421" to="-61093" />
    <trip id="191" depart="5892.35" from="-51224" to="12224" />
    <trip id="192" depart="5923.20" from="-63535" to="-60628" />
    <trip id="193" depart="5954.05" from="-26585" to="13619" />
    <trip id="194" depart="5984.90" from="67376" to="47259" />
    <trip id="195" depart="6015.75" from="60800" to="38897" />
    <trip id="196" depart="6046.60" from="-49937" to="30455" />
    <trip id="197" depart="6077.45" from="-10235" to="-59213" />
    <trip id="198" depart="6108.30" from="-66076" to="34357" />
    <trip id="199" depart="6139.15" from="20357" to="20116" />
    <trip id="200" depart="6170.00" from="-67374" to="-46325" />
    <trip id="201" depart="6200.85" from="-70860" to="72786" />
    <trip id="202" depart="6231.70" from="42687" to="-38137" />
    <trip id="203" depart="6262.55" from="-21016" to="26592" />
    <trip id="204" depart="6293.40" from="16360" to="-67809" />
    <trip id="205" depart="6324.25" from="46928" to="571" />
    <trip id="206" depart="6355.10" from="23045" to="-47812" />
    <trip id="207" depart="6385.95" from="-35655" to="-13855" />
    <trip id="208" depart="6416.80" from="-42107" to="21194" />
    <trip id="209" depart="6447.65" from="51781" to="-22103" />
    <trip id="210" depart="6478.50" from="-64650" to="41107" />
    <trip id="211" depart="6509.35" from="-35433" to="49674" />
    <trip id="212" depart="6540.20" from="-72786" to="-51638" />
    <trip id="213" depart="6571.05" from="20691" to="-10898" />
    <trip id="214" depart="6601.90" from="35327" to="59050" />
    <trip id="215" depart="6632.75" from="-23658" to="1437" />
    <trip id="216" depart="6663.60" from="-32711" to="76162" />
    <trip id="217" depart="6694.45" from="-74503" to="-18569" />
    <trip id="218" depart="6725.30" from="-42262" to="67837" />
    <trip id="219" depart="6756.15" from="-68811" to="63302" />
    <trip id="220" depart="6787.00" from="2225" to="8943" />
    <trip id="221" depart="6817.85" from="10405" to="75518" />
    <trip id="222" depart="6848.70" from="5918" to="38836" />
    <trip id="223" depart="6879.55" from="30408" to="24891" />
    <trip id="224" depart="6910.40" from="48719" to="30455" />
    <trip id="225" depart="6941.25" from="60055" to="56167" />
    <trip id="226" depart="6972.10" from="-71322" to="-5429" />
    <trip id="227" depart="7002.95" from="-42240" to="42069" />
    <trip id="228" depart="7033.80" from="37690" to="27514" />
    <trip id="229" depart="7064.65" from="15583" to="-56766" />
    <trip id="230" depart="7095.50" from="-20187" to="-59" />
    <trip id="231" depart="7126.35" from="-46185" to="-65189" />
    <trip id="232" depart="7157.20" from="-75426" to="-32447" />
    <trip id="233" depart="7188.05" from="-40127" to="49246" />
    <trip id="234" depart="7218.90" from="29125" to="-21018" />
    <trip id="235" depart="7249.75" from="-63933" to="30022" />
    <trip id="236" depart="7280.60" from="-64782" to="-45059" />
    <trip id="237" depart="7311.45" from="-64954" to="72934" />
    <trip id="238" depart="7342.30" from="-9138" to="4960" />
    <trip id="239" depart="7373.15" from="53000" to="58403" />
    <trip id="240" depart="7404.00" from="-6026" to="-11003" />
    <trip id="241" depart="7434.85" from="-57032" to="57444" />
    <trip id="242" depart="7465.70" from="52445" to="75658" />
    <trip id="243" depart="7496.55" from="-64948" to="56670" />
    <trip id="244" depart="7527.40" from="-75658" to="37385" />
    <trip id="245" depart="7558.25" from="-38844" to="-4713" />
    <trip id="246" depart="7589.10" from="-66694" to="-14881" />
    <trip id="247" depart="7619.95" from="-5489" to="47422" />
    <trip id="248" depart="7650.80" from="-63657" to="-37135" />
    <trip id="249" depart="7681.65" from="-70024" to="-30853" />
    <trip id="250" depart="7712.50" from="14877" to="-14529" />
    <trip id="251" depart="7743.35" from="-62337" to="32697" />
    <trip id="252" depart="7774.20" from="-13328" to="42262" />
    <trip id="253" depart="7805.05" from="-27917" to="19441" />
    <trip id="254" depart="7835.90" from="-16012" to="-8867" />
    <trip id="255" depart="7866.75" from="-374" to="-66694" />
    <trip id="256" depart="7897.60" from="36778" to="-8867" />
    <trip id="257" depart="7928.45" from="35557" to="66076" />
    <trip id="258" depart="7959.30" from="-42704" to="-23611" />
    <trip id="259" depart="7990.15" from="-12224" to="29668" />
    <trip id="260" depart="8021.00" from="9999" to="-7085" />
    <trip id="261" depart="8051.85" from="19697" to="60623" />
    <trip id="262" depart="8082.70" from="20120" to="57709" />
    <trip id="263" depart="8113.55" from="68927" to="-43175" />
    <trip id="264" depart="8144.40" from="-12355" to="-35151" />
    <trip id="265" depart="8175.25" from="-26207" to="46503" />
    <trip id="266" depart="8206.10" from="-76279" to="-47038" />
    <trip id="267" depart="8236.95" from="28058" to="58421" />
    <trip id="268" depart="8267.80" from="-32066" to="37846" />
    <trip id="269" depart="8298.65" from="34835" to="-29337" />
    <trip id="270" depart="8329.50" from="47046" to="76198" />
    <trip id="271" depart="8360.35" from="-23664" to="-14208" />
    <trip id="272" depart="8391.20" from="-51621" to="4726" />
    <trip id="273" depart="8422.05" from="7083" to="1093" />
    <trip id="274" depart="8452.90" from="3" to="-22734" />
    <trip id="275" depart="8483.75" from="26207" to="40651" />
    <trip id="276" depart="8514.60" from="-23067" to="59503" />
    <trip id="277" depart="8545.45" from="518" to="36909" />
    <trip id="278" depart="8576.30" from="-25721" to="8575" />
    <trip id="279" depart="8607.15" from="4062" to="-70050" />
    <trip id="280" depart="8638.00" from="-66068" to="-75520" />
    <trip id="281" depart="8668.85" from="-73720" to="-68796" />
    <trip id="282" depart="8699.70" from="51780" to="65372" />
    <trip id="283" depart="8730.55" from="-2337" to="76172" />
    <trip id="284" depart="8761.40" from="16836" to="66062" />
    <trip id="285" depart="8792.25" from="29158" to="1586" />
    <trip id="286" depart="8823.10" from="32383" to="76246" />
    <trip id="287" depart="8853.95" from="-45703" to="64069" />
    <trip id="288" depart="8884.80" from="-75420" to="22233" />
    <trip id="289" depart="8915.65" from="-66585" to="54421" />
    <trip id="290" depart="8946.50" from="-45553" to="68077" />
    <trip id="291" depart="8977.35" from="4872" to="-24590" />
    <trip id="292" depart="9008.20" from="57436" to="-51636" />
    <trip id="293" depart="9039.05" from="-69760" to="3823" />
    <trip id="294" depart="9069.90" from="-60175" to="-14875" />
    <trip id="295" depart="9100.75" from="519" to="-40127" />
    <trip id="296" depart="9131.60" from="-37635" to="63265" />
    <trip id="297" depart="9162.45" from="-55993" to="71763" />
    <trip id="298" depart="9193.30" from="28358" to="-57078" />
    <trip id="299" depart="9224.15" from="-11267" to="75509" />
    <trip id="300" depart="9255.00" from="-21170" to="52889" />
    <trip id="301" depart="9285.85" from="-72666" to="5794" />
    <trip id="302" depart="9316.70" from="26207" to="42706" />
    <trip id="303" depart="9347.55" from="-72674" to="62318" />
    <trip id="304" depart="9378.40" from="-22215" to="-47274" />
    <trip id="305" depart="9409.25" from="26592" to="-62337" />
    <trip id="306" depart="9440.10" from="-8955" to="20960" />
    <trip id="307" depart="9470.95" from="-75151" to="1446" />
    <trip id="308" depart="9501.80" from="34202" to="-67314" />
    <trip id="309" depart="9532.65" from="28547" to="-563" />
    <trip id="310" depart="9563.50" from="-4252" to="-30037" />
    <trip id="311" depart="9594.35" from="-35121" to="-3" />
    <trip id="312" depart="9625.20" from="-75281" to="58324" />
    <trip id="313" depart="9656.05" from="-33920" to="-46673" />
    <trip id="314" depart="9686.90" from="-72486" to="53113" />
    <trip id="315" depart="9717.75" from="74757" to="28021" />
    <trip id="316" depart="9748.60" from="-47530" to="-27354" />
    <trip id="317" depart="9779.45" from="-3535" to="-48350" />
    <trip id="318" depart="9810.30" from="-33322" to="-11841" />
    <trip id="319" depart="9841.15" from="-75264" to="-56756" />
    <trip id="320" depart="9872.00" from="74354" to="31189" />
    <trip id="321" depart="9902.85" from="27683" to="-30594" />
    <trip id="322" depart="9933.70" from="5490" to="23025" />
    <trip id="323" depart="9964.55" from="55995" to="33535" />
    <trip id="324" depart="9995.40" from="-70279" to="16250" />
    <trip id="325" depart="10026.25" from="-3367" to="-18865" />
    <trip id="326" depart="10057.10" from="67419" to="21240" />
    <trip id="327" depart="10087.95" from="47265" to="11444" />
    <trip id="328" depart="10118.80" from="-19701" to="41095" />
    <trip id="329" depart="10149.65" from="-16495" to="-34462" />
    <trip id="330" depart="10180.50" from="-76268" to="-6184" />
    <trip id="331" depart="10211.35" from="9302" to="-29774" />
    <trip id="332" depart="10242.20" from="37352" to="37835" />
    <trip id="333" depart="10273.05" from="42069" to="-48174" />
    <trip id="334" depart="10303.90" from="-74861" to="18" />
    <trip id="335" depart="10334.75" from="-67386" to="68950" />
    <trip id="336" depart="10365.60" from="8921" to="-62307" />
    <trip id="337" depart="10396.45" from="14559" to="38095" />
    <trip id="338" depart="10427.30" from="33118" to="75433" />
    <trip id="339" depart="10458.15" from="-36892" to="-45666" />
    <trip id="340" depart="10489.00" from="21205" to="-35655" />
    <trip id="341" depart="10519.85" from="-32668" to="-22470" />
    <trip id="342" depart="10550.70" from="-10375" to="18" />
    <trip id="343" depart="10581.55" from="10360" to="-59990" />
    <trip id="344" depart="10612.40" from="-40131" to="51224" />
    <trip id="345" depart="10643.25" from="28756" to="18573" />
    <trip id="346" depart="10674.10" from="25857" to="74503" />
    <trip id="347" depart="10704.95" from="41626" to="40270" />
    <trip id="348" depart="10735.80" from="21227" to="75033" />
    <trip id="349" depart="10766.65" from="-66027" to="3014" />
    <trip id="350" depart="10797.50" from="1902" to="7346" />
    <trip id="351" depart="10828.35" from="47840" to="-21942" />
    <trip id="352" depart="10859.20" from="-31779" to="-63026" />
    <trip id="353" depart="10890.05" from="35004" to="3332" />
    <trip id="354" depart="10920.90" from="-48176" to="-30437" />
    <trip id="355" depart="10951.75" from="26024" to="50190" />
    <trip id="356" depart="10982.60" from="67810" to="24306" />
    <trip id="357" depart="11013.45" from="-72784" to="-23193" />
    <trip id="358" depart="11044.30" from="-14867" to="15035" />
    <trip id="359" depart="11075.15" from="-52889" to="-52442" />
    <trip id="360" depart="11106.00" from="-22066" to="76180" />
    <trip id="361" depart="11136.85" from="49676" to="33643" />
    <trip id="362" depart="11167.70" from="6946" to="9950" />
    <trip id="363" depart="11198.55" from="23029" to="-56014" />
    <trip id="364" depart="11229.40" from="-14867" to="57829" />
    <trip id="365" depart="11260.25" from="-70414" to="43205" />
    <trip id="366" depart="11291.10" from="63304" to="-40106" />
    <trip id="367" depart="11321.95" from="-9294" to="41898" />
    <trip id="368" depart="11352.80" from="-72705" to="-25394" />
    <trip id="369" depart="11383.65" from="-56393" to="-67602" />
    <trip id="370" depart="11414.50" from="22741" to="68796" />
    <trip id="371" depart="11445.35" from="-54034" to="49246" />
    <trip id="372" depart="11476.20" from="-48161" to="75426" />
    <trip id="373" depart="11507.05" from="45953" to="30737" />
    <trip id="374" depart="11537.90" from="-68658" to="-64218" />
    <trip id="375" depart="11568.75" from="-5291" to="76268" />
    <trip id="376" depart="11599.60" from="-63657" to="26319" />
    <trip id="377" depart="11630.45" from="8851" to="44763" />
    <trip id="378" depart="11661.30" from="-75518" to="12738" />
    <trip id="379" depart="11692.15" from="-34357" to="-73290" />
    <trip id="380" depart="11723.00" from="36126" to="40279" />
    <trip id="381" depart="11753.85" from="36690" to="-44498" />
    <trip id="382" depart="11784.70" from="-76041" to="74757" />
    <trip id="383" depart="11815.55" from="-67049" to="49937" />
    <trip id="384" depart="11846.40" from="-25744" to="76284" />
    <trip id="385" depart="11877.25" from="12374" to="-5071" />
    <trip id="386" depart="11908.10" from="-30464" to="30855" />
    <trip id="387" depart="11938.95" from="-7617" to="-260" />
    <trip id="388" depart="11969.80" from="9146" to="73722" />
    <trip id="389" depart="12000.65" from="-69425" to="-29674" />
    <trip id="390" depart="12031.50" from="48965" to="23810" />
    <trip id="391" depart="12062.35" from="30044" to="25390" />
    <trip id="392" depart="12093.20" from="-46486" to="66332" />
    <trip id="393" depart="12124.05" from="75889" to="-51634" />
    <trip id="394" depart="12154.90" from="-76162" to="-9302" />
    <trip id="395" depart="12185.75" from="64329" to="25281" />
    <trip id="396" depart="12216.60" from="56787" to="69551" />
    <trip id="397" depart="12247.45" from="-46673" to="61481" />
    <trip id="398" depart="12278.30" from="-64782" to="75038" />
    <trip id="399" depart="12309.15" from="-73776" to="64954" />
    <trip id="400" depart="12340.00" from="-4750" to="-60825" />
    <trip id="401" depart="12370.85" from="-9686" to="9912" />
    <trip id="402" depart="12401.70" from="-72672" to="-3403" />
    <trip id="403" depart="12432.55" from="-75420" to="-69715" />
    <trip id="404" depart="12463.40" from="-76162" to="30037" />
    <trip id="405" depart="12494.25" from="-68660" to="-65772" />
    <trip id="406" depart="12525.10" from="-34472" to="49931" />
    <trip id="407" depart="12555.95" from="-76436" to="-49666" />
    <trip id="408" depart="12586.80" from="39647" to="-17477" />
    <trip id="409" depart="12617.65" from="33941" to="51087" />
    <trip id="410" depart="12648.50" from="45666" to="-9713" />
    <trip id="411" depart="12679.35" from="21650" to="64958" />
    <trip id="412" depart="12710.20" from="76021" to="2333" />
    <trip id="413" depart="12741.05" from="-14775" to="24582" />
    <trip id="414" depart="12771.90" from="-9913" to="70163" />
    <trip id="415" depart="12802.75" from="56141" to="1625" />
    <trip id="416" depart="12833.60" from="-74901" to="18876" />
    <trip id="417" depart="12864.45" from="30718" to="12331" />
    <trip id="418" depart="12895.30" from="20359" to="-35442" />
    <trip id="419" depart="12926.15" from="-70382" to="76268" />
    <trip id="420" depart="12957.00" from="-55286" to="49212" />
    <trip id="421" depart="12987.85" from="19556" to="68077" />
    <trip id="422" depart="13018.70" from="52388" to="68936" />
    <trip id="423" depart="13049.55" from="-60207" to="-64499" />
    <trip id="424" depart="13080.40" from="30293" to="58092" />
    <trip id="425" depart="13111.25" from="55976" to="-1600" />
    <trip id="426" depart="13142.10" from="-18892" to="41576" />
    <trip id="427" depart="13172.95" from="64183" to="9840" />
    <trip id="428" depart="13203.80" from="34472" to="15452" />
    <trip id="429" depart="13234.65" from="-22871" to="41776" />
    <trip id="430" depart="13265.50" from="55993" to="16687" />
    <trip id="431" depart="13296.35" from="27217" to="729" />
    <trip id="432" depart="13327.20" from="-15921" to="62772" />
    <trip id="433" depart="13358.05" from="-48719" to="-7958" />
    <trip id="434" depart="13388.90" from="-2920" to="2901" />
    <trip id="435" depart="13419.75" from="-76281" to="62078" />
    <trip id="436" depart="13450.60" from="-32269" to="-23053" />
    <trip id="437" depart="13481.45" from="554" to="39519" />
    <trip id="438" depart="13512.30" from="-41776" to="73722" />
    <trip id="439" depart="13543.15" from="-28986" to="19218" />
    <trip id="440" depart="13574.00" from="-4280" to="-53095" />
    <trip id="441" depart="13604.85" from="-11146" to="63657" />
    <trip id="442" depart="13635.70" from="60635" to="47265" />
    <trip id="443" depart="13666.55" from="-30459" to="16339" />
    <trip id="444" depart="13697.40" from="-56285" to="3555" />
    <trip id="445" depart="13728.25" from="17550" to="1421" />
    <trip id="446" depart="13759.10" from="-42289" to="67386" />
    <trip id="447" depart="13789.95" from="-35661" to="-9367" />
    <trip id="448" depart="13820.80" from="-72387" to="-50504" />
    <trip id="449" depart="13851.65" from="-76436" to="33643" />
    <trip id="450" depart="13882.50" from="9258" to="-6052" />
    <trip id="451" depart="13913.35" from="74910" to="44889" />
    <trip id="452" depart="13944.20" from="-46540" to="32721" />
    <trip id="453" depart="13975.05" from="25167" to="56287" />
    <trip id="454" depart="14005.90" from="-1600" to="37835" />
    <trip id="455" depart="14036.75" from="-72810" to="729" />
    <trip id="456" depart="14067.60" from="-47813" to="63275" />
    <trip id="457" depart="14098.45" from="11892" to="-71360" />
    <trip id="458" depart="14129.30" from="17009" to="39665" />
    <trip id="459" depart="14160.15" from="23694" to="53000" />
    <trip id="460" depart="14191.00" from="21031" to="66817" />
    <trip id="461" depart="14221.85" from="15931" to="729" />
    <trip id="462" depart="14252.70" from="18865" to="-63285" />
    <trip id="463" depart="14283.55" from="-67277" to="34357" />
    <trip id="464" depart="14314.40" from="32216" to="-25042" />
    <trip id="465" depart="14345.25" from="-49091" to="56670" />
    <trip id="466" depart="14376.10" from="-32705" to="-31522" />
    <trip id="467" depart="14406.95" from="-75426" to="76279" />