<?xml version="1.0" encoding="UTF-8"?>

<!-- generated on 2025-10-23 18:15:42 by Eclipse SUMO netconvert Version 1.24.0
<netconvertConfiguration xmlns:xsi="http://www.w3.org/2001/XMLSchema-instance" xsi:noNamespaceSchemaLocation="http://sumo.dlr.de/xsd/netconvertConfiguration.xsd">

    <input>
        <sumo-net-file value="/nfs/work/hcsoere/fast-dta/input/random/instance_1/1_n463_t36824.net.xml"/>
    </input>

    <output>
        <plain-output-prefix value="/nfs/work/hcsoere/fast-dta/input/random/instance_1/1_n463_t36824"/>
    </output>

    <processing>
        <geometry.min-radius.fix.railways value="false"/>
        <geometry.avoid-overlap value="false"/>
        <geometry.max-grade.fix value="false"/>
        <offset.disable-normalization value="true"/>
        <lefthand value="0"/>
    </processing>

    <junctions>
        <no-turnarounds value="true"/>
        <junctions.corner-detail value="5"/>
        <junctions.limit-turn-speed value="5.50"/>
        <rectangular-lane-cut value="0"/>
    </junctions>

    <pedestrian>
        <walkingareas value="0"/>
    </pedestrian>

</netconvertConfiguration>
-->

<connections version="1.20" xmlns:xsi="http://www.w3.org/2001/XMLSchema-instance" xsi:noNamespaceSchemaLocation="http://sumo.dlr.de/xsd/connections_file.xsd">
    <connection from="-10021" to="-9497" fromLane="0" toLane="0"/>
    <connection from="-10021" to="9978" fromLane="0" toLane="0"/>
    <connection from="-10021" to="9979" fromLane="0" toLane="0"/>
    <connection from="-10021" to="10021" fromLane="0" toLane="1"/>

    <connection from="-10131" to="-9503" fromLane="0" toLane="0"/>
    <connection from="-10131" to="10132" fromLane="1" toLane="0"/>
    <connection from="-10131" to="10131" fromLane="1" toLane="0"/>

    <connection from="-10132" to="10131" fromLane="0" toLane="0"/>
    <connection from="-10132" to="-9503" fromLane="0" toLane="0"/>
    <connection from="-10132" to="10132" fromLane="1" toLane="0"/>

    <connection from="-102" to="-5" fromLane="0" toLane="0"/>
    <connection from="-102" to="98" fromLane="0" toLane="1"/>
    <connection from="-102" to="102" fromLane="0" toLane="0"/>

    <connection from="-10238" to="10670" fromLane="0" toLane="0"/>
    <connection from="-10238" to="8678" fromLane="0" toLane="1"/>
    <connection from="-10238" to="-7291" fromLane="0" toLane="1"/>
    <connection from="-10238" to="10238" fromLane="0" toLane="0"/>

    <connection from="-10241" to="-7966" fromLane="0" toLane="0"/>
    <connection from="-10241" to="11743" fromLane="0" toLane="0"/>
    <connection from="-10241" to="11743" fromLane="1" toLane="1"/>
    <connection from="-10241" to="10672" fromLane="1" toLane="1"/>
    <connection from="-10241" to="10241" fromLane="1" toLane="0"/>

    <connection from="-10250" to="10254" fromLane="0" toLane="0"/>
    <connection from="-10250" to="-10238" fromLane="0" toLane="0"/>
    <connection from="-10250" to="-9512" fromLane="0" toLane="0"/>
    <connection from="-10250" to="10250" fromLane="0" toLane="1"/>

    <connection from="-10254" to="-10238" fromLane="0" toLane="0"/>
    <connection from="-10254" to="-9512" fromLane="0" toLane="0"/>
    <connection from="-10254" to="10250" fromLane="0" toLane="1"/>
    <connection from="-10254" to="10254" fromLane="0" toLane="0"/>

    <connection from="-10288" to="9512" fromLane="0" toLane="0"/>
    <connection from="-10288" to="-7295" fromLane="0" toLane="0"/>
    <connection from="-10288" to="8682" fromLane="0" toLane="1"/>
    <connection from="-10288" to="10288" fromLane="0" toLane="1"/>

    <connection from="-10293" to="-9519" fromLane="0" toLane="0"/>
    <connection from="-10293" to="-10241" fromLane="0" toLane="1"/>
    <connection from="-10293" to="10293" fromLane="0" toLane="0"/>

    <connection from="-10309" to="-6961" fromLane="0" toLane="0"/>
    <connection from="-10309" to="10313" fromLane="0" toLane="0"/>
    <connection from="-10309" to="10313" fromLane="1" toLane="1"/>
    <connection from="-10309" to="10321" fromLane="1" toLane="1"/>
    <connection from="-10309" to="10309" fromLane="1" toLane="0"/>

    <connection from="-10313" to="10321" fromLane="0" toLane="0"/>
    <connection from="-10313" to="10309" fromLane="0" toLane="0"/>
    <connection from="-10313" to="-6961" fromLane="0" toLane="1"/>
    <connection from="-10313" to="10313" fromLane="0" toLane="1"/>

    <connection from="-10321" to="10309" fromLane="0" toLane="0"/>
    <connection from="-10321" to="-6961" fromLane="0" toLane="0"/>
    <connection from="-10321" to="-6961" fromLane="0" toLane="1"/>
    <connection from="-10321" to="10313" fromLane="0" toLane="1"/>
    <connection from="-10321" to="10321" fromLane="0" toLane="1"/>

    <connection from="-10323" to="-9637" fromLane="0" toLane="0"/>
    <connection from="-10323" to="-9633" fromLane="0" toLane="0"/>
    <connection from="-10323" to="-9633" fromLane="0" toLane="1"/>
    <connection from="-10323" to="10325" fromLane="0" toLane="0"/>
    <connection from="-10323" to="10323" fromLane="0" toLane="0"/>

    <connection from="-10325" to="10323" fromLane="0" toLane="0"/>
    <connection from="-10325" to="-9637" fromLane="0" toLane="0"/>
    <connection from="-10325" to="-9633" fromLane="1" toLane="1"/>
    <connection from="-10325" to="10325" fromLane="1" toLane="0"/>

    <connection from="-10434" to="11467" fromLane="0" toLane="0"/>
    <connection from="-10434" to="11479" fromLane="0" toLane="1"/>
    <connection from="-10434" to="-9655" fromLane="0" toLane="0"/>
    <connection from="-10434" to="10434" fromLane="0" toLane="1"/>

    <connection from="-10443" to="10443" fromLane="0" toLane="0"/>

    <connection from="-10553" to="-9495" fromLane="0" toLane="0"/>
    <connection from="-10553" to="10557" fromLane="0" toLane="0"/>
    <connection from="-10553" to="10555" fromLane="0" toLane="1"/>
    <connection from="-10553" to="10553" fromLane="0" toLane="1"/>

    <connection from="-10555" to="10553" fromLane="0" toLane="0"/>
    <connection from="-10555" to="-9495" fromLane="0" toLane="0"/>
    <connection from="-10555" to="10557" fromLane="0" toLane="0"/>
    <connection from="-10555" to="10555" fromLane="0" toLane="1"/>

    <connection from="-10557" to="10555" fromLane="0" toLane="0"/>
    <connection from="-10557" to="10553" fromLane="0" toLane="0"/>
    <connection from="-10557" to="10553" fromLane="1" toLane="1"/>
    <connection from="-10557" to="-9495" fromLane="1" toLane="0"/>
    <connection from="-10557" to="10557" fromLane="1" toLane="0"/>

    <connection from="-10667" to="-8682" fromLane="0" toLane="0"/>
    <connection from="-10667" to="-6842" fromLane="0" toLane="0"/>
    <connection from="-10667" to="-14109" fromLane="1" toLane="0"/>
    <connection from="-10667" to="10667" fromLane="1" toLane="1"/>

    <connection from="-10670" to="8678" fromLane="0" toLane="0"/>
    <connection from="-10670" to="8678" fromLane="1" toLane="1"/>
    <connection from="-10670" to="-7291" fromLane="1" toLane="1"/>
    <connection from="-10670" to="10238" fromLane="1" toLane="0"/>
    <connection from="-10670" to="10670" fromLane="1" toLane="1"/>

    <connection from="-10672" to="10241" fromLane="0" toLane="0"/>
    <connection from="-10672" to="-7966" fromLane="0" toLane="1"/>
    <connection from="-10672" to="11743" fromLane="0" toLane="1"/>
    <connection from="-10672" to="10672" fromLane="0" toLane="1"/>

    <connection from="-10676" to="14227" fromLane="0" toLane="0"/>
    <connection from="-10676" to="14227" fromLane="1" toLane="1"/>
    <connection from="-10676" to="-10288" fromLane="1" toLane="0"/>
    <connection from="-10676" to="10676" fromLane="1" toLane="1"/>

    <connection from="-108" to="-98" fromLane="0" toLane="0"/>
    <connection from="-108" to="109" fromLane="0" toLane="1"/>
    <connection from="-108" to="117" fromLane="0" toLane="0"/>
    <connection from="-108" to="108" fromLane="0" toLane="0"/>

    <connection from="-10800" to="8297" fromLane="0" toLane="0"/>
    <connection from="-10800" to="-7464" fromLane="0" toLane="0"/>
    <connection from="-10800" to="-7464" fromLane="1" toLane="1"/>
    <connection from="-10800" to="8296" fromLane="1" toLane="1"/>
    <connection from="-10800" to="10800" fromLane="1" toLane="1"/>

    <connection from="-10807" to="-8302" fromLane="0" toLane="0"/>

    <connection from="-10814" to="-10313" fromLane="0" toLane="0"/>
    <connection from="-10814" to="10815" fromLane="0" toLane="1"/>
    <connection from="-10814" to="10814" fromLane="0" toLane="1"/>

    <connection from="-10815" to="10814" fromLane="0" toLane="0"/>
    <connection from="-10815" to="-10313" fromLane="0" toLane="0"/>
    <connection from="-10815" to="10815" fromLane="0" toLane="1"/>

    <connection from="-109" to="117" fromLane="0" toLane="0"/>
    <connection from="-109" to="108" fromLane="0" toLane="0"/>
    <connection from="-109" to="-98" fromLane="0" toLane="1"/>
    <connection from="-109" to="109" fromLane="0" toLane="1"/>

    <connection from="-10918" to="10926" fromLane="0" toLane="0"/>
    <connection from="-10918" to="10920" fromLane="0" toLane="1"/>
    <connection from="-10918" to="-10323" fromLane="0" toLane="0"/>
    <connection from="-10918" to="10918" fromLane="0" toLane="0"/>

    <connection from="-10920" to="-10323" fromLane="0" toLane="0"/>
    <connection from="-10920" to="10918" fromLane="0" toLane="0"/>
    <connection from="-10920" to="10926" fromLane="1" toLane="1"/>
    <connection from="-10920" to="10920" fromLane="1" toLane="1"/>

    <connection from="-10926" to="10920" fromLane="0" toLane="0"/>
    <connection from="-10926" to="-10323" fromLane="0" toLane="0"/>
    <connection from="-10926" to="10918" fromLane="0" toLane="0"/>
    <connection from="-10926" to="10926" fromLane="0" toLane="1"/>

    <connection from="-11043" to="-13440" fromLane="0" toLane="0"/>
    <connection from="-11043" to="11489" fromLane="0" toLane="0"/>
    <connection from="-11043" to="11489" fromLane="1" toLane="1"/>
    <connection from="-11043" to="-5834" fromLane="1" toLane="1"/>
    <connection from="-11043" to="11043" fromLane="1" toLane="0"/>

    <connection from="-11065" to="5847" fromLane="0" toLane="0"/>
    <connection from="-11065" to="6402" fromLane="0" toLane="0"/>
    <connection from="-11065" to="-2677" fromLane="1" toLane="0"/>
    <connection from="-11065" to="5845" fromLane="1" toLane="1"/>
    <connection from="-11065" to="11065" fromLane="1" toLane="1"/>

    <connection from="-11170" to="-12208" fromLane="0" toLane="0"/>
    <connection from="-11170" to="-11623" fromLane="0" toLane="0"/>
    <connection from="-11170" to="-11623" fromLane="0" toLane="1"/>
    <connection from="-11170" to="-10553" fromLane="0" toLane="0"/>
    <connection from="-11170" to="11170" fromLane="0" toLane="1"/>

    <connection from="-11178" to="-7161" fromLane="0" toLane="0"/>
    <connection from="-11178" to="9503" fromLane="0" toLane="0"/>
    <connection from="-11178" to="9503" fromLane="1" toLane="1"/>
    <connection from="-11178" to="11178" fromLane="1" toLane="0"/>

    <connection from="-11183" to="11195" fromLane="0" toLane="0"/>
    <connection from="-11183" to="-10676" fromLane="0" toLane="0"/>
    <connection from="-11183" to="-10676" fromLane="0" toLane="1"/>
    <connection from="-11183" to="-10667" fromLane="0" toLane="1"/>
    <connection from="-11183" to="11183" fromLane="0" toLane="1"/>

    <connection from="-11195" to="-10676" fromLane="0" toLane="0"/>
    <connection from="-11195" to="-10667" fromLane="0" toLane="0"/>
    <connection from="-11195" to="-10667" fromLane="1" toLane="1"/>
    <connection from="-11195" to="11183" fromLane="1" toLane="1"/>
    <connection from="-11195" to="11195" fromLane="1" toLane="0"/>

    <connection from="-1120" to="2929" fromLane="0" toLane="1"/>
    <connection from="-1120" to="1120" fromLane="0" toLane="1"/>

    <connection from="-11204" to="-10293" fromLane="0" toLane="0"/>
    <connection from="-11204" to="-10672" fromLane="1" toLane="0"/>
    <connection from="-11204" to="11204" fromLane="1" toLane="0"/>

    <connection from="-11205" to="13159" fromLane="0" toLane="0"/>
    <connection from="-11205" to="-8084" fromLane="1" toLane="1"/>
    <connection from="-11205" to="11205" fromLane="1" toLane="1"/>

    <connection from="-11208" to="-5705" fromLane="0" toLane="0"/>
    <connection from="-11208" to="-5705" fromLane="1" toLane="1"/>
    <connection from="-11208" to="6124" fromLane="1" toLane="0"/>
    <connection from="-11208" to="11208" fromLane="1" toLane="0"/>

    <connection from="-1126" to="2930" fromLane="0" toLane="0"/>
    <connection from="-1126" to="-997" fromLane="1" toLane="1"/>
    <connection from="-1126" to="1126" fromLane="1" toLane="1"/>

    <connection from="-11340" to="-10807" fromLane="0" toLane="0"/>
    <connection from="-11340" to="11342" fromLane="0" toLane="1"/>
    <connection from="-11340" to="11340" fromLane="0" toLane="1"/>

    <connection from="-11342" to="11340" fromLane="0" toLane="0"/>
    <connection from="-11342" to="-10807" fromLane="0" toLane="0"/>
    <connection from="-11342" to="11342" fromLane="0" toLane="1"/>

    <connection from="-11447" to="-10814" fromLane="0" toLane="0"/>
    <connection from="-11447" to="11453" fromLane="0" toLane="0"/>
    <connection from="-11447" to="11451" fromLane="1" toLane="0"/>
    <connection from="-11447" to="11447" fromLane="1" toLane="1"/>

    <connection from="-11451" to="11447" fromLane="0" toLane="0"/>
    <connection from="-11451" to="-10814" fromLane="0" toLane="0"/>
    <connection from="-11451" to="11453" fromLane="1" toLane="0"/>
    <connection from="-11451" to="11451" fromLane="1" toLane="0"/>

    <connection from="-11453" to="11451" fromLane="0" toLane="0"/>
    <connection from="-11453" to="11447" fromLane="0" toLane="0"/>
    <connection from="-11453" to="11447" fromLane="1" toLane="1"/>
    <connection from="-11453" to="-10814" fromLane="1" toLane="0"/>
    <connection from="-11453" to="11453" fromLane="1" toLane="0"/>

    <connection from="-11467" to="11479" fromLane="0" toLane="0"/>
    <connection from="-11467" to="-9655" fromLane="0" toLane="0"/>
    <connection from="-11467" to="10434" fromLane="0" toLane="1"/>
    <connection from="-11467" to="11467" fromLane="0" toLane="0"/>

    <connection from="-1147" to="-700" fromLane="0" toLane="0"/>
    <connection from="-1147" to="853" fromLane="0" toLane="0"/>
    <connection from="-1147" to="2062" fromLane="1" toLane="1"/>
    <connection from="-1147" to="1147" fromLane="1" toLane="1"/>

    <connection from="-11479" to="-9655" fromLane="0" toLane="0"/>
    <connection from="-11479" to="10434" fromLane="0" toLane="1"/>
    <connection from="-11479" to="11467" fromLane="0" toLane="0"/>
    <connection from="-11479" to="11479" fromLane="0" toLane="1"/>

    <connection from="-11482" to="-7634" fromLane="0" toLane="0"/>
    <connection from="-11482" to="-9645" fromLane="1" toLane="1"/>
    <connection from="-11482" to="11482" fromLane="1" toLane="1"/>

    <connection from="-11489" to="-5834" fromLane="0" toLane="0"/>
    <connection from="-11489" to="11043" fromLane="0" toLane="0"/>
    <connection from="-11489" to="-13440" fromLane="1" toLane="0"/>
    <connection from="-11489" to="11489" fromLane="1" toLane="1"/>

    <connection from="-11497" to="-11065" fromLane="0" toLane="0"/>
    <connection from="-11497" to="11509" fromLane="1" toLane="1"/>
    <connection from="-11497" to="11497" fromLane="1" toLane="1"/>

    <connection from="-1150" to="2277" fromLane="0" toLane="0"/>
    <connection from="-1150" to="-987" fromLane="0" toLane="0"/>
    <connection from="-1150" to="1682" fromLane="0" toLane="1"/>
    <connection from="-1150" to="1150" fromLane="0" toLane="0"/>

    <connection from="-11509" to="11497" fromLane="0" toLane="0"/>
    <connection from="-11509" to="-11065" fromLane="0" toLane="0"/>
    <connection from="-11509" to="-11065" fromLane="0" toLane="1"/>
    <connection from="-11509" to="11509" fromLane="0" toLane="1"/>

    <connection from="-11613" to="11619" fromLane="0" toLane="0"/>
    <connection from="-11613" to="11617" fromLane="0" toLane="0"/>
    <connection from="-11613" to="-11170" fromLane="1" toLane="0"/>
    <connection from="-11613" to="11613" fromLane="1" toLane="0"/>

    <connection from="-11617" to="-11170" fromLane="0" toLane="0"/>
    <connection from="-11617" to="11613" fromLane="0" toLane="0"/>
    <connection from="-11617" to="11619" fromLane="0" toLane="1"/>
    <connection from="-11617" to="11617" fromLane="0" toLane="0"/>

    <connection from="-11619" to="11617" fromLane="0" toLane="0"/>
    <connection from="-11619" to="-11170" fromLane="0" toLane="0"/>
    <connection from="-11619" to="11613" fromLane="1" toLane="0"/>
    <connection from="-11619" to="11619" fromLane="1" toLane="1"/>

    <connection from="-1162" to="-866" fromLane="0" toLane="0"/>
    <connection from="-1162" to="2071" fromLane="0" toLane="0"/>
    <connection from="-1162" to="1162" fromLane="1" toLane="1"/>

    <connection from="-11623" to="11631" fromLane="0" toLane="0"/>
    <connection from="-11623" to="-10131" fromLane="0" toLane="0"/>
    <connection from="-11623" to="-10131" fromLane="1" toLane="1"/>
    <connection from="-11623" to="11623" fromLane="1" toLane="0"/>

    <connection from="-11631" to="-10131" fromLane="0" toLane="0"/>
    <connection from="-11631" to="-10131" fromLane="1" toLane="1"/>
    <connection from="-11631" to="11623" fromLane="1" toLane="0"/>
    <connection from="-11631" to="11631" fromLane="1" toLane="1"/>

    <connection from="-117" to="108" fromLane="0" toLane="0"/>
    <connection from="-117" to="-98" fromLane="0" toLane="0"/>
    <connection from="-117" to="-98" fromLane="1" toLane="1"/>
    <connection from="-117" to="109" fromLane="1" toLane="1"/>
    <connection from="-117" to="117" fromLane="1" toLane="0"/>

    <connection from="-11743" to="10672" fromLane="0" toLane="0"/>
    <connection from="-11743" to="10241" fromLane="0" toLane="0"/>
    <connection from="-11743" to="-7966" fromLane="0" toLane="1"/>
    <connection from="-11743" to="11743" fromLane="0" toLane="1"/>

    <connection from="-11747" to="-11208" fromLane="0" toLane="0"/>
    <connection from="-11747" to="-11204" fromLane="0" toLane="0"/>
    <connection from="-11747" to="-11204" fromLane="1" toLane="1"/>
    <connection from="-11747" to="11747" fromLane="1" toLane="1"/>

    <connection from="-11754" to="11758" fromLane="0" toLane="0"/>
    <connection from="-11754" to="11754" fromLane="1" toLane="0"/>

    <connection from="-11758" to="11754" fromLane="0" toLane="0"/>
    <connection from="-11758" to="11758" fromLane="1" toLane="0"/>

    <connection from="-1178" to="-1147" fromLane="0" toLane="0"/>
    <connection from="-1178" to="1182" fromLane="0" toLane="0"/>
    <connection from="-1178" to="1184" fromLane="1" toLane="0"/>
    <connection from="-1178" to="1178" fromLane="1" toLane="1"/>

    <connection from="-1182" to="1184" fromLane="0" toLane="0"/>
    <connection from="-1182" to="1178" fromLane="0" toLane="0"/>
    <connection from="-1182" to="1178" fromLane="0" toLane="1"/>
    <connection from="-1182" to="-1147" fromLane="0" toLane="1"/>
    <connection from="-1182" to="1182" fromLane="0" toLane="0"/>

    <connection from="-1184" to="1178" fromLane="0" toLane="0"/>
    <connection from="-1184" to="-1147" fromLane="0" toLane="0"/>
    <connection from="-1184" to="-1147" fromLane="1" toLane="1"/>
    <connection from="-1184" to="1182" fromLane="1" toLane="0"/>
    <connection from="-1184" to="1184" fromLane="1" toLane="0"/>

    <connection from="-11864" to="11866" fromLane="0" toLane="0"/>
    <connection from="-11864" to="-11342" fromLane="0" toLane="0"/>
    <connection from="-11864" to="11876" fromLane="0" toLane="0"/>
    <connection from="-11864" to="11864" fromLane="0" toLane="0"/>

    <connection from="-11866" to="-11342" fromLane="0" toLane="0"/>
    <connection from="-11866" to="11876" fromLane="0" toLane="0"/>
    <connection from="-11866" to="11864" fromLane="0" toLane="0"/>
    <connection from="-11866" to="11866" fromLane="0" toLane="1"/>

    <connection from="-11876" to="11864" fromLane="0" toLane="0"/>
    <connection from="-11876" to="11866" fromLane="0" toLane="0"/>
    <connection from="-11876" to="11866" fromLane="0" toLane="1"/>
    <connection from="-11876" to="-11342" fromLane="0" toLane="0"/>
    <connection from="-11876" to="11876" fromLane="0" toLane="0"/>

    <connection from="-11881" to="-11453" fromLane="0" toLane="0"/>
    <connection from="-11881" to="-11453" fromLane="0" toLane="1"/>

    <connection from="-11891" to="-7622" fromLane="0" toLane="0"/>
    <connection from="-11891" to="11897" fromLane="0" toLane="0"/>
    <connection from="-11891" to="11897" fromLane="0" toLane="1"/>
    <connection from="-11891" to="11915" fromLane="0" toLane="0"/>
    <connection from="-11891" to="11891" fromLane="0" toLane="0"/>

    <connection from="-11897" to="11915" fromLane="0" toLane="0"/>
    <connection from="-11897" to="11891" fromLane="0" toLane="0"/>
    <connection from="-11897" to="-7622" fromLane="1" toLane="1"/>
    <connection from="-11897" to="11897" fromLane="1" toLane="1"/>

    <connection from="-11915" to="11891" fromLane="0" toLane="0"/>
    <connection from="-11915" to="-7622" fromLane="0" toLane="0"/>
    <connection from="-11915" to="-7622" fromLane="1" toLane="1"/>
    <connection from="-11915" to="11897" fromLane="1" toLane="1"/>
    <connection from="-11915" to="11915" fromLane="1" toLane="0"/>

    <connection from="-11916" to="11917" fromLane="0" toLane="0"/>
    <connection from="-11916" to="-9651" fromLane="0" toLane="1"/>
    <connection from="-11916" to="11916" fromLane="0" toLane="1"/>

    <connection from="-11917" to="-9651" fromLane="0" toLane="0"/>
    <connection from="-11917" to="11916" fromLane="0" toLane="1"/>
    <connection from="-11917" to="11917" fromLane="0" toLane="1"/>

    <connection from="-11932" to="-11482" fromLane="0" toLane="0"/>
    <connection from="-11932" to="-11482" fromLane="1" toLane="1"/>
    <connection from="-11932" to="-11917" fromLane="1" toLane="0"/>
    <connection from="-11932" to="11932" fromLane="1" toLane="0"/>

    <connection from="-11937" to="15725" fromLane="0" toLane="0"/>
    <connection from="-11937" to="15731" fromLane="0" toLane="0"/>
    <connection from="-11937" to="-5828" fromLane="0" toLane="0"/>
    <connection from="-11937" to="11937" fromLane="0" toLane="0"/>

    <connection from="-11944" to="11950" fromLane="0" toLane="0"/>
    <connection from="-11944" to="-11937" fromLane="0" toLane="0"/>
    <connection from="-11944" to="-11489" fromLane="1" toLane="1"/>
    <connection from="-11944" to="11944" fromLane="1" toLane="0"/>

    <connection from="-11950" to="-11937" fromLane="0" toLane="0"/>
    <connection from="-11950" to="-11489" fromLane="0" toLane="0"/>
    <connection from="-11950" to="-11489" fromLane="1" toLane="1"/>
    <connection from="-11950" to="11944" fromLane="1" toLane="0"/>
    <connection from="-11950" to="11950" fromLane="1" toLane="1"/>

    <connection from="-12056" to="12102" fromLane="0" toLane="0"/>
    <connection from="-12056" to="-11497" fromLane="0" toLane="1"/>
    <connection from="-12056" to="12056" fromLane="0" toLane="1"/>

    <connection from="-12102" to="-11497" fromLane="0" toLane="0"/>
    <connection from="-12102" to="12056" fromLane="0" toLane="1"/>
    <connection from="-12102" to="12102" fromLane="0" toLane="1"/>

    <connection from="-12207" to="12208" fromLane="0" toLane="0"/>
    <connection from="-12207" to="-11617" fromLane="1" toLane="0"/>
    <connection from="-12207" to="12207" fromLane="1" toLane="1"/>

    <connection from="-12208" to="-11617" fromLane="0" toLane="0"/>
    <connection from="-12208" to="12207" fromLane="0" toLane="1"/>
    <connection from="-12208" to="12208" fromLane="0" toLane="0"/>

    <connection from="-12212" to="-11631" fromLane="0" toLane="0"/>
    <connection from="-12212" to="-11631" fromLane="1" toLane="1"/>
    <connection from="-12212" to="12220" fromLane="1" toLane="0"/>
    <connection from="-12212" to="12212" fromLane="1" toLane="1"/>

    <connection from="-12220" to="12212" fromLane="0" toLane="0"/>
    <connection from="-12220" to="-11631" fromLane="0" toLane="1"/>
    <connection from="-12220" to="12220" fromLane="0" toLane="0"/>

    <connection from="-12224" to="-13146" fromLane="0" toLane="0"/>
    <connection from="-12224" to="-11195" fromLane="0" toLane="0"/>
    <connection from="-12224" to="-11195" fromLane="1" toLane="1"/>
    <connection from="-12224" to="14952" fromLane="1" toLane="0"/>
    <connection from="-12224" to="12224" fromLane="1" toLane="1"/>

    <connection from="-12228" to="-7876" fromLane="0" toLane="0"/>
    <connection from="-12228" to="-8678" fromLane="0" toLane="1"/>
    <connection from="-12228" to="12228" fromLane="0" toLane="0"/>

    <connection from="-12232" to="-11743" fromLane="0" toLane="0"/>
    <connection from="-12232" to="-12228" fromLane="0" toLane="0"/>
    <connection from="-12232" to="12238" fromLane="0" toLane="1"/>
    <connection from="-12232" to="12232" fromLane="0" toLane="1"/>

    <connection from="-12238" to="12232" fromLane="0" toLane="0"/>
    <connection from="-12238" to="-11743" fromLane="0" toLane="0"/>
    <connection from="-12238" to="-12228" fromLane="0" toLane="0"/>
    <connection from="-12238" to="12238" fromLane="0" toLane="1"/>

    <connection from="-12246" to="12252" fromLane="0" toLane="0"/>
    <connection from="-12246" to="-15991" fromLane="0" toLane="0"/>
    <connection from="-12246" to="-11758" fromLane="0" toLane="1"/>
    <connection from="-12246" to="12246" fromLane="0" toLane="0"/>

    <connection from="-12252" to="-15991" fromLane="0" toLane="0"/>
    <connection from="-12252" to="-11758" fromLane="0" toLane="0"/>
    <connection from="-12252" to="-11758" fromLane="0" toLane="1"/>
    <connection from="-12252" to="12246" fromLane="0" toLane="0"/>
    <connection from="-12252" to="12252" fromLane="0" toLane="0"/>

    <connection from="-12254" to="-11864" fromLane="0" toLane="0"/>
    <connection from="-12254" to="12255" fromLane="0" toLane="1"/>
    <connection from="-12254" to="12261" fromLane="0" toLane="0"/>
    <connection from="-12254" to="12254" fromLane="0" toLane="0"/>

    <connection from="-12261" to="12254" fromLane="0" toLane="0"/>
    <connection from="-12261" to="-11864" fromLane="0" toLane="0"/>
    <connection from="-12261" to="12255" fromLane="0" toLane="0"/>
    <connection from="-12261" to="12255" fromLane="1" toLane="1"/>
    <connection from="-12261" to="12261" fromLane="1" toLane="0"/>

    <connection from="-12262" to="12292" fromLane="0" toLane="0"/>
    <connection from="-12262" to="-11866" fromLane="0" toLane="0"/>
    <connection from="-12262" to="-12254" fromLane="1" toLane="0"/>
    <connection from="-12262" to="12262" fromLane="1" toLane="0"/>

    <connection from="-12292" to="-11866" fromLane="0" toLane="0"/>
    <connection from="-12292" to="-12254" fromLane="1" toLane="0"/>
    <connection from="-12292" to="12262" fromLane="1" toLane="0"/>
    <connection from="-12292" to="12292" fromLane="1" toLane="1"/>

    <connection from="-12300" to="-11876" fromLane="0" toLane="0"/>
    <connection from="-12300" to="12300" fromLane="1" toLane="1"/>

    <connection from="-12302" to="12304" fromLane="0" toLane="0"/>
    <connection from="-12302" to="12306" fromLane="0" toLane="0"/>
    <connection from="-12302" to="-6617" fromLane="1" toLane="0"/>
    <connection from="-12302" to="12302" fromLane="1" toLane="0"/>

    <connection from="-12304" to="12306" fromLane="0" toLane="0"/>
    <connection from="-12304" to="-6617" fromLane="0" toLane="0"/>
    <connection from="-12304" to="12302" fromLane="1" toLane="0"/>
    <connection from="-12304" to="12304" fromLane="1" toLane="0"/>

    <connection from="-12312" to="15660" fromLane="0" toLane="0"/>
    <connection from="-12312" to="-10920" fromLane="0" toLane="0"/>
    <connection from="-12312" to="-10920" fromLane="1" toLane="1"/>
    <connection from="-12312" to="15225" fromLane="1" toLane="1"/>
    <connection from="-12312" to="12312" fromLane="1" toLane="0"/>

    <connection from="-12319" to="-5437" fromLane="0" toLane="0"/>
    <connection from="-12319" to="-5437" fromLane="0" toLane="1"/>
    <connection from="-12319" to="12621" fromLane="0" toLane="1"/>
    <connection from="-12319" to="12319" fromLane="0" toLane="1"/>

    <connection from="-12322" to="-11915" fromLane="0" toLane="0"/>
    <connection from="-12322" to="16137" fromLane="0" toLane="0"/>
    <connection from="-12322" to="16137" fromLane="1" toLane="1"/>
    <connection from="-12322" to="12322" fromLane="1" toLane="0"/>

    <connection from="-12328" to="-11932" fromLane="0" toLane="0"/>
    <connection from="-12328" to="12340" fromLane="0" toLane="0"/>
    <connection from="-12328" to="12340" fromLane="1" toLane="1"/>
    <connection from="-12328" to="12344" fromLane="1" toLane="0"/>
    <connection from="-12328" to="12328" fromLane="1" toLane="1"/>

    <connection from="-12340" to="12344" fromLane="0" toLane="0"/>
    <connection from="-12340" to="12328" fromLane="0" toLane="0"/>
    <connection from="-12340" to="12328" fromLane="1" toLane="1"/>
    <connection from="-12340" to="-11932" fromLane="1" toLane="1"/>
    <connection from="-12340" to="12340" fromLane="1" toLane="1"/>

    <connection from="-12344" to="12328" fromLane="0" toLane="0"/>
    <connection from="-12344" to="-11932" fromLane="0" toLane="0"/>
    <connection from="-12344" to="-11932" fromLane="1" toLane="1"/>
    <connection from="-12344" to="12340" fromLane="1" toLane="1"/>
    <connection from="-12344" to="12344" fromLane="1" toLane="0"/>

    <connection from="-12346" to="-6675" fromLane="0" toLane="0"/>
    <connection from="-12346" to="12350" fromLane="0" toLane="0"/>