<?xml version="1.0" encoding="UTF-8"?>

<!-- generated on 2025-10-03 15:08:20 by Eclipse SUMO netconvert Version 1.23.1
<netconvertConfiguration xmlns:xsi="http://www.w3.org/2001/XMLSchema-instance" xsi:noNamespaceSchemaLocation="http://sumo.dlr.de/xsd/netconvertConfiguration.xsd">

    <input>
        <sumo-net-file value="random.net.xml"/>
    </input>

    <output>
        <plain-output-prefix value="random"/>
    </output>

    <processing>
        <geometry.min-radius.fix.railways value="false"/>
        <geometry.avoid-overlap value="false"/>
        <geometry.max-grade.fix value="false"/>
        <offset.disable-normalization value="true"/>
        <lefthand value="0"/>
    </processing>

    <junctions>
        <no-turnarounds value="true"/>
        <junctions.corner-detail value="5"/>
        <junctions.limit-turn-speed value="5.50"/>
        <rectangular-lane-cut value="0"/>
    </junctions>

    <pedestrian>
        <walkingareas value="0"/>
    </pedestrian>

</netconvertConfiguration>
-->

<connections version="1.20" xmlns:xsi="http://www.w3.org/2001/XMLSchema-instance" xsi:noNamespaceSchemaLocation="http://sumo.dlr.de/xsd/connections_file.xsd">
    <connection from="-10003" to="9997" fromLane="0" toLane="0"/>
    <connection from="-10003" to="-9367" fromLane="0" toLane="0"/>
    <connection from="-10003" to="9999" fromLane="1" toLane="1"/>
    <connection from="-10003" to="10003" fromLane="1" toLane="0"/>

    <connection from="-10006" to="-9474" fromLane="0" toLane="0"/>
    <connection from="-10006" to="-9474" fromLane="0" toLane="1"/>
    <connection from="-10006" to="10007" fromLane="0" toLane="0"/>
    <connection from="-10006" to="10006" fromLane="0" toLane="0"/>

    <connection from="-10235" to="-9711" fromLane="0" toLane="0"/>
    <connection from="-10235" to="-9711" fromLane="0" toLane="1"/>
    <connection from="-10235" to="10231" fromLane="0" toLane="1"/>
    <connection from="-10235" to="10235" fromLane="0" toLane="1"/>

    <connection from="-10236" to="-9714" fromLane="0" toLane="0"/>
    <connection from="-10236" to="-9713" fromLane="0" toLane="0"/>
    <connection from="-10236" to="-9713" fromLane="1" toLane="1"/>
    <connection from="-10236" to="10236" fromLane="1" toLane="1"/>

    <connection from="-10245" to="-10894" fromLane="0" toLane="0"/>
    <connection from="-10245" to="-9138" fromLane="0" toLane="0"/>
    <connection from="-10245" to="10245" fromLane="1" toLane="1"/>

    <connection from="-10272" to="-10245" fromLane="0" toLane="0"/>
    <connection from="-10272" to="-9845" fromLane="0" toLane="0"/>
    <connection from="-10272" to="-9845" fromLane="1" toLane="1"/>
    <connection from="-10272" to="10272" fromLane="1" toLane="0"/>

    <connection from="-10274" to="-7491" fromLane="0" toLane="0"/>

    <connection from="-10276" to="-9857" fromLane="0" toLane="0"/>
    <connection from="-10276" to="-9857" fromLane="1" toLane="1"/>
    <connection from="-10276" to="-10274" fromLane="1" toLane="0"/>
    <connection from="-10276" to="10276" fromLane="1" toLane="0"/>

    <connection from="-10284" to="-9861" fromLane="0" toLane="0"/>
    <connection from="-10284" to="10290" fromLane="0" toLane="0"/>
    <connection from="-10284" to="10284" fromLane="0" toLane="0"/>

    <connection from="-10290" to="10284" fromLane="0" toLane="0"/>
    <connection from="-10290" to="-9861" fromLane="0" toLane="0"/>
    <connection from="-10290" to="10290" fromLane="0" toLane="0"/>

    <connection from="-10297" to="-9881" fromLane="0" toLane="0"/>
    <connection from="-10297" to="10337" fromLane="0" toLane="0"/>
    <connection from="-10297" to="10303" fromLane="1" toLane="1"/>
    <connection from="-10297" to="10297" fromLane="1" toLane="0"/>

    <connection from="-10303" to="10297" fromLane="0" toLane="0"/>
    <connection from="-10303" to="-9881" fromLane="0" toLane="0"/>
    <connection from="-10303" to="-9881" fromLane="1" toLane="1"/>
    <connection from="-10303" to="10337" fromLane="1" toLane="0"/>
    <connection from="-10303" to="10303" fromLane="1" toLane="1"/>

    <connection from="-10337" to="10303" fromLane="0" toLane="0"/>
    <connection from="-10337" to="10297" fromLane="0" toLane="0"/>
    <connection from="-10337" to="-9881" fromLane="0" toLane="1"/>
    <connection from="-10337" to="10337" fromLane="0" toLane="0"/>

    <connection from="-10349" to="-6444" fromLane="0" toLane="0"/>
    <connection from="-10349" to="-6444" fromLane="1" toLane="1"/>
    <connection from="-10349" to="10351" fromLane="1" toLane="0"/>
    <connection from="-10349" to="10349" fromLane="1" toLane="0"/>

    <connection from="-10351" to="10349" fromLane="0" toLane="0"/>
    <connection from="-10351" to="-6444" fromLane="0" toLane="1"/>
    <connection from="-10351" to="10351" fromLane="0" toLane="0"/>

    <connection from="-10354" to="-9907" fromLane="0" toLane="0"/>
    <connection from="-10354" to="-9907" fromLane="1" toLane="1"/>

    <connection from="-10360" to="10374" fromLane="0" toLane="0"/>
    <connection from="-10360" to="10366" fromLane="0" toLane="0"/>
    <connection from="-10360" to="10366" fromLane="1" toLane="1"/>
    <connection from="-10360" to="-9915" fromLane="1" toLane="0"/>
    <connection from="-10360" to="-9948" fromLane="1" toLane="0"/>
    <connection from="-10360" to="10360" fromLane="1" toLane="1"/>

    <connection from="-10366" to="-9915" fromLane="0" toLane="0"/>
    <connection from="-10366" to="-9948" fromLane="0" toLane="0"/>
    <connection from="-10366" to="10360" fromLane="1" toLane="1"/>
    <connection from="-10366" to="10374" fromLane="1" toLane="0"/>
    <connection from="-10366" to="10366" fromLane="1" toLane="1"/>

    <connection from="-10374" to="10366" fromLane="0" toLane="0"/>
    <connection from="-10374" to="-9915" fromLane="0" toLane="0"/>
    <connection from="-10374" to="-9948" fromLane="0" toLane="0"/>
    <connection from="-10374" to="10360" fromLane="0" toLane="1"/>
    <connection from="-10374" to="10374" fromLane="0" toLane="0"/>

    <connection from="-10375" to="10381" fromLane="0" toLane="0"/>
    <connection from="-10375" to="-9947" fromLane="1" toLane="0"/>
    <connection from="-10375" to="10375" fromLane="1" toLane="0"/>

    <connection from="-1038" to="2089" fromLane="0" toLane="0"/>
    <connection from="-1038" to="-884" fromLane="0" toLane="0"/>
    <connection from="-1038" to="1038" fromLane="0" toLane="1"/>

    <connection from="-10381" to="-9947" fromLane="0" toLane="0"/>
    <connection from="-10381" to="10375" fromLane="1" toLane="0"/>
    <connection from="-10381" to="10381" fromLane="1" toLane="0"/>

    <connection from="-10382" to="10384" fromLane="0" toLane="0"/>
    <connection from="-10382" to="-9950" fromLane="0" toLane="0"/>
    <connection from="-10382" to="-9950" fromLane="1" toLane="1"/>
    <connection from="-10382" to="10396" fromLane="1" toLane="1"/>
    <connection from="-10382" to="10382" fromLane="1" toLane="1"/>

    <connection from="-10384" to="-9950" fromLane="0" toLane="0"/>
    <connection from="-10384" to="10396" fromLane="0" toLane="0"/>
    <connection from="-10384" to="10396" fromLane="0" toLane="1"/>
    <connection from="-10384" to="10382" fromLane="0" toLane="1"/>
    <connection from="-10384" to="10384" fromLane="0" toLane="0"/>

    <connection from="-10397" to="-10360" fromLane="0" toLane="0"/>
    <connection from="-10397" to="-9990" fromLane="0" toLane="0"/>
    <connection from="-10397" to="-9990" fromLane="1" toLane="1"/>
    <connection from="-10397" to="10398" fromLane="1" toLane="0"/>
    <connection from="-10397" to="10397" fromLane="1" toLane="1"/>

    <connection from="-10398" to="10397" fromLane="0" toLane="0"/>
    <connection from="-10398" to="-10360" fromLane="0" toLane="0"/>
    <connection from="-10398" to="-10360" fromLane="1" toLane="1"/>
    <connection from="-10398" to="-9990" fromLane="1" toLane="1"/>
    <connection from="-10398" to="10398" fromLane="1" toLane="0"/>

    <connection from="-10403" to="-9365" fromLane="0" toLane="0"/>
    <connection from="-10403" to="10403" fromLane="0" toLane="1"/>

    <connection from="-10405" to="10409" fromLane="0" toLane="0"/>
    <connection from="-10405" to="-9997" fromLane="0" toLane="0"/>
    <connection from="-10405" to="10405" fromLane="0" toLane="0"/>

    <connection from="-10409" to="-9997" fromLane="0" toLane="0"/>
    <connection from="-10409" to="10405" fromLane="0" toLane="0"/>
    <connection from="-10409" to="10409" fromLane="0" toLane="1"/>

    <connection from="-10411" to="-10405" fromLane="0" toLane="0"/>
    <connection from="-10411" to="-10003" fromLane="0" toLane="0"/>
    <connection from="-10411" to="-10003" fromLane="1" toLane="1"/>
    <connection from="-10411" to="12873" fromLane="1" toLane="0"/>
    <connection from="-10411" to="10411" fromLane="1" toLane="0"/>

    <connection from="-10417" to="-7641" fromLane="0" toLane="0"/>
    <connection from="-10417" to="-7641" fromLane="1" toLane="1"/>

    <connection from="-1043" to="-83" fromLane="0" toLane="0"/>
    <connection from="-1043" to="1421" fromLane="0" toLane="0"/>
    <connection from="-1043" to="1421" fromLane="0" toLane="1"/>
    <connection from="-1043" to="1415" fromLane="0" toLane="0"/>
    <connection from="-1043" to="1043" fromLane="0" toLane="1"/>

    <connection from="-10525" to="-8484" fromLane="0" toLane="0"/>
    <connection from="-10525" to="-8484" fromLane="1" toLane="1"/>

    <connection from="-1059" to="212" fromLane="0" toLane="0"/>
    <connection from="-1059" to="239" fromLane="0" toLane="0"/>
    <connection from="-1059" to="-75" fromLane="0" toLane="1"/>
    <connection from="-1059" to="1059" fromLane="0" toLane="0"/>

    <connection from="-1061" to="-1038" fromLane="0" toLane="0"/>
    <connection from="-1061" to="1121" fromLane="0" toLane="0"/>
    <connection from="-1061" to="1061" fromLane="0" toLane="1"/>

    <connection from="-1066" to="-1059" fromLane="0" toLane="0"/>
    <connection from="-1066" to="-1043" fromLane="0" toLane="0"/>
    <connection from="-1066" to="1066" fromLane="1" toLane="1"/>

    <connection from="-10742" to="10744" fromLane="0" toLane="0"/>
    <connection from="-10742" to="-10235" fromLane="0" toLane="0"/>
    <connection from="-10742" to="10742" fromLane="0" toLane="0"/>

    <connection from="-10744" to="-10235" fromLane="0" toLane="0"/>
    <connection from="-10744" to="10742" fromLane="1" toLane="0"/>
    <connection from="-10744" to="10744" fromLane="1" toLane="1"/>

    <connection from="-1075" to="471" fromLane="0" toLane="0"/>
    <connection from="-1075" to="-451" fromLane="0" toLane="0"/>
    <connection from="-1075" to="-453" fromLane="0" toLane="1"/>
    <connection from="-1075" to="1075" fromLane="0" toLane="1"/>

    <connection from="-10757" to="10791" fromLane="0" toLane="0"/>
    <connection from="-10757" to="10791" fromLane="1" toLane="1"/>
    <connection from="-10757" to="-8136" fromLane="1" toLane="1"/>
    <connection from="-10757" to="10757" fromLane="1" toLane="1"/>

    <connection from="-10791" to="-8136" fromLane="0" toLane="0"/>
    <connection from="-10791" to="10757" fromLane="0" toLane="1"/>
    <connection from="-10791" to="10791" fromLane="0" toLane="1"/>

    <connection from="-10894" to="-10272" fromLane="0" toLane="0"/>
    <connection from="-10894" to="10898" fromLane="0" toLane="1"/>
    <connection from="-10894" to="10894" fromLane="0" toLane="0"/>

    <connection from="-10898" to="10894" fromLane="0" toLane="0"/>
    <connection from="-10898" to="-10272" fromLane="0" toLane="1"/>
    <connection from="-10898" to="10898" fromLane="0" toLane="1"/>

    <connection from="-1093" to="-443" fromLane="0" toLane="0"/>
    <connection from="-1093" to="509" fromLane="0" toLane="0"/>
    <connection from="-1093" to="1109" fromLane="1" toLane="0"/>
    <connection from="-1093" to="1093" fromLane="1" toLane="1"/>

    <connection from="-11002" to="11004" fromLane="0" toLane="0"/>
    <connection from="-11002" to="11003" fromLane="1" toLane="1"/>
    <connection from="-11002" to="-10284" fromLane="1" toLane="0"/>
    <connection from="-11002" to="11002" fromLane="1" toLane="0"/>

    <connection from="-11003" to="-10284" fromLane="0" toLane="0"/>
    <connection from="-11003" to="11002" fromLane="0" toLane="0"/>
    <connection from="-11003" to="11004" fromLane="0" toLane="0"/>
    <connection from="-11003" to="11003" fromLane="0" toLane="1"/>

    <connection from="-11004" to="11003" fromLane="0" toLane="0"/>
    <connection from="-11004" to="-10284" fromLane="0" toLane="0"/>
    <connection from="-11004" to="11002" fromLane="0" toLane="0"/>
    <connection from="-11004" to="11004" fromLane="0" toLane="0"/>

    <connection from="-11016" to="11088" fromLane="0" toLane="0"/>
    <connection from="-11016" to="-11002" fromLane="0" toLane="1"/>
    <connection from="-11016" to="-10290" fromLane="0" toLane="0"/>
    <connection from="-11016" to="11016" fromLane="0" toLane="1"/>

    <connection from="-11088" to="-11002" fromLane="0" toLane="0"/>
    <connection from="-11088" to="-10290" fromLane="0" toLane="0"/>
    <connection from="-11088" to="11016" fromLane="1" toLane="1"/>
    <connection from="-11088" to="11088" fromLane="1" toLane="1"/>

    <connection from="-1109" to="1093" fromLane="0" toLane="0"/>
    <connection from="-1109" to="-443" fromLane="0" toLane="0"/>
    <connection from="-1109" to="509" fromLane="1" toLane="0"/>
    <connection from="-1109" to="1109" fromLane="1" toLane="0"/>

    <connection from="-11094" to="11096" fromLane="0" toLane="0"/>
    <connection from="-11094" to="-10303" fromLane="0" toLane="1"/>
    <connection from="-11094" to="11094" fromLane="0" toLane="0"/>

    <connection from="-11096" to="-10303" fromLane="0" toLane="0"/>
    <connection from="-11096" to="-10303" fromLane="0" toLane="1"/>
    <connection from="-11096" to="11094" fromLane="0" toLane="0"/>
    <connection from="-11096" to="11096" fromLane="0" toLane="0"/>

    <connection from="-1110" to="1134" fromLane="0" toLane="0"/>
    <connection from="-1110" to="-2736" fromLane="0" toLane="0"/>
    <connection from="-1110" to="-2736" fromLane="1" toLane="1"/>
    <connection from="-1110" to="-512" fromLane="1" toLane="1"/>
    <connection from="-1110" to="1110" fromLane="1" toLane="0"/>

    <connection from="-11102" to="-11094" fromLane="0" toLane="0"/>
    <connection from="-11102" to="-10337" fromLane="0" toLane="0"/>
    <connection from="-11102" to="11112" fromLane="1" toLane="1"/>
    <connection from="-11102" to="11102" fromLane="1" toLane="0"/>

    <connection from="-11112" to="11102" fromLane="0" toLane="0"/>
    <connection from="-11112" to="-11094" fromLane="0" toLane="0"/>
    <connection from="-11112" to="-10337" fromLane="1" toLane="0"/>
    <connection from="-11112" to="11112" fromLane="1" toLane="1"/>

    <connection from="-11122" to="41344" fromLane="0" toLane="0"/>
    <connection from="-11122" to="30586" fromLane="0" toLane="0"/>
    <connection from="-11122" to="30586" fromLane="0" toLane="1"/>
    <connection from="-11122" to="-10351" fromLane="0" toLane="0"/>
    <connection from="-11122" to="-10354" fromLane="0" toLane="1"/>
    <connection from="-11122" to="11122" fromLane="0" toLane="1"/>

    <connection from="-11128" to="-8086" fromLane="0" toLane="0"/>
    <connection from="-11128" to="11568" fromLane="0" toLane="0"/>
    <connection from="-11128" to="11605" fromLane="0" toLane="0"/>
    <connection from="-11128" to="11569" fromLane="0" toLane="0"/>
    <connection from="-11128" to="11128" fromLane="0" toLane="1"/>

    <connection from="-11131" to="-7096" fromLane="0" toLane="0"/>
    <connection from="-11131" to="7626" fromLane="0" toLane="0"/>
    <connection from="-11131" to="11132" fromLane="0" toLane="1"/>
    <connection from="-11131" to="11131" fromLane="0" toLane="0"/>

    <connection from="-11132" to="11131" fromLane="0" toLane="0"/>
    <connection from="-11132" to="-7096" fromLane="0" toLane="0"/>
    <connection from="-11132" to="7626" fromLane="1" toLane="0"/>
    <connection from="-11132" to="11132" fromLane="1" toLane="1"/>

    <connection from="-11146" to="-10375" fromLane="0" toLane="0"/>
    <connection from="-11146" to="-10366" fromLane="0" toLane="0"/>
    <connection from="-11146" to="-10366" fromLane="1" toLane="1"/>
    <connection from="-11146" to="11146" fromLane="1" toLane="1"/>

    <connection from="-11148" to="11150" fromLane="0" toLane="0"/>
    <connection from="-11148" to="-10374" fromLane="0" toLane="0"/>
    <connection from="-11148" to="-10397" fromLane="0" toLane="1"/>
    <connection from="-11148" to="11148" fromLane="0" toLane="0"/>

    <connection from="-11150" to="-10374" fromLane="0" toLane="0"/>
    <connection from="-11150" to="-10397" fromLane="0" toLane="1"/>
    <connection from="-11150" to="11148" fromLane="0" toLane="0"/>
    <connection from="-11150" to="11150" fromLane="0" toLane="0"/>

    <connection from="-11151" to="11157" fromLane="0" toLane="0"/>
    <connection from="-11151" to="-10381" fromLane="0" toLane="1"/>
    <connection from="-11151" to="11151" fromLane="0" toLane="1"/>

    <connection from="-11157" to="-10381" fromLane="0" toLane="0"/>
    <connection from="-11157" to="-10381" fromLane="1" toLane="1"/>
    <connection from="-11157" to="11151" fromLane="1" toLane="1"/>
    <connection from="-11157" to="11157" fromLane="1" toLane="1"/>

    <connection from="-1121" to="1061" fromLane="0" toLane="0"/>
    <connection from="-1121" to="1061" fromLane="1" toLane="1"/>
    <connection from="-1121" to="-1038" fromLane="1" toLane="0"/>
    <connection from="-1121" to="1121" fromLane="1" toLane="0"/>

    <connection from="-11267" to="11289" fromLane="0" toLane="1"/>
    <connection from="-11267" to="11267" fromLane="0" toLane="0"/>

    <connection from="-11289" to="11267" fromLane="0" toLane="0"/>
    <connection from="-11289" to="11289" fromLane="0" toLane="1"/>

    <connection from="-1130" to="-67" fromLane="0" toLane="0"/>
    <connection from="-1130" to="-1372" fromLane="0" toLane="1"/>
    <connection from="-1130" to="1130" fromLane="0" toLane="1"/>

    <connection from="-11303" to="-10409" fromLane="0" toLane="0"/>
    <connection from="-11303" to="-10411" fromLane="0" toLane="1"/>
    <connection from="-11303" to="11303" fromLane="0" toLane="1"/>

    <connection from="-11316" to="-10417" fromLane="0" toLane="0"/>
    <connection from="-11316" to="-10417" fromLane="0" toLane="1"/>

    <connection from="-1134" to="-2736" fromLane="0" toLane="0"/>
    <connection from="-1134" to="-512" fromLane="0" toLane="0"/>
    <connection from="-1134" to="-512" fromLane="0" toLane="1"/>
    <connection from="-1134" to="1110" fromLane="0" toLane="0"/>
    <connection from="-1134" to="1134" fromLane="0" toLane="1"/>

    <connection from="-11422" to="-6788" fromLane="0" toLane="0"/>
    <connection from="-11422" to="-7347" fromLane="0" toLane="0"/>
    <connection from="-11422" to="-10006" fromLane="1" toLane="0"/>
    <connection from="-11422" to="11422" fromLane="1" toLane="1"/>

    <connection from="-11440" to="-9091" fromLane="0" toLane="0"/>
    <connection from="-11440" to="-23681" fromLane="0" toLane="0"/>
    <connection from="-11440" to="11440" fromLane="0" toLane="1"/>

    <connection from="-11444" to="-10742" fromLane="0" toLane="0"/>
    <connection from="-11444" to="11453" fromLane="0" toLane="1"/>
    <connection from="-11444" to="11445" fromLane="0" toLane="0"/>
    <connection from="-11444" to="11444" fromLane="0" toLane="1"/>

    <connection from="-11453" to="11445" fromLane="0" toLane="0"/>
    <connection from="-11453" to="11444" fromLane="1" toLane="0"/>
    <connection from="-11453" to="-10742" fromLane="1" toLane="0"/>
    <connection from="-11453" to="11453" fromLane="1" toLane="1"/>

    <connection from="-11463" to="-10744" fromLane="0" toLane="0"/>
    <connection from="-11463" to="-10744" fromLane="1" toLane="1"/>
    <connection from="-11463" to="-11444" fromLane="1" toLane="0"/>
    <connection from="-11463" to="11464" fromLane="1" toLane="0"/>
    <connection from="-11463" to="11463" fromLane="1" toLane="0"/>

    <connection from="-11464" to="11463" fromLane="0" toLane="0"/>
    <connection from="-11464" to="-10744" fromLane="0" toLane="1"/>
    <connection from="-11464" to="-11444" fromLane="0" toLane="0"/>
    <connection from="-11464" to="11464" fromLane="0" toLane="0"/>

    <connection from="-1147" to="1149" fromLane="0" toLane="0"/>
    <connection from="-1147" to="-1134" fromLane="0" toLane="0"/>
    <connection from="-1147" to="-1121" fromLane="1" toLane="1"/>
    <connection from="-1147" to="1147" fromLane="1" toLane="1"/>

    <connection from="-11471" to="-10757" fromLane="0" toLane="0"/>
    <connection from="-11471" to="11473" fromLane="0" toLane="0"/>
    <connection from="-11471" to="11471" fromLane="0" toLane="1"/>

    <connection from="-11473" to="11471" fromLane="0" toLane="0"/>
    <connection from="-11473" to="-10757" fromLane="0" toLane="1"/>
    <connection from="-11473" to="11473" fromLane="0" toLane="0"/>

    <connection from="-11476" to="-10898" fromLane="0" toLane="0"/>
    <connection from="-11476" to="11488" fromLane="0" toLane="0"/>
    <connection from="-11476" to="11488" fromLane="1" toLane="1"/>
    <connection from="-11476" to="11476" fromLane="1" toLane="1"/>

    <connection from="-11488" to="11476" fromLane="0" toLane="0"/>
    <connection from="-11488" to="11476" fromLane="1" toLane="1"/>
    <connection from="-11488" to="-10898" fromLane="1" toLane="0"/>
    <connection from="-11488" to="11488" fromLane="1" toLane="1"/>

    <connection from="-1149" to="-1134" fromLane="0" toLane="0"/>
    <connection from="-1149" to="-1121" fromLane="0" toLane="0"/>
    <connection from="-1149" to="-1121" fromLane="1" toLane="1"/>
    <connection from="-1149" to="1147" fromLane="1" toLane="1"/>
    <connection from="-1149" to="1149" fromLane="1" toLane="1"/>

    <connection from="-11498" to="11500" fromLane="0" toLane="0"/>
    <connection from="-11498" to="-11096" fromLane="1" toLane="0"/>
    <connection from="-11498" to="11498" fromLane="1" toLane="0"/>

    <connection from="-11528" to="11542" fromLane="0" toLane="0"/>
    <connection from="-11528" to="-11498" fromLane="0" toLane="0"/>
    <connection from="-11528" to="-11498" fromLane="1" toLane="1"/>
    <connection from="-11528" to="-11102" fromLane="1" toLane="1"/>
    <connection from="-11528" to="11528" fromLane="1" toLane="1"/>

    <connection from="-11542" to="-11498" fromLane="0" toLane="0"/>
    <connection from="-11542" to="-11102" fromLane="0" toLane="0"/>
    <connection from="-11542" to="-11102" fromLane="1" toLane="1"/>
    <connection from="-11542" to="11528" fromLane="1" toLane="1"/>
    <connection from="-11542" to="11542" fromLane="1" toLane="1"/>

    <connection from="-11543" to="-11112" fromLane="0" toLane="0"/>
    <connection from="-11543" to="11547" fromLane="0" toLane="0"/>
    <connection from="-11543" to="11543" fromLane="0" toLane="0"/>

    <connection from="-11547" to="11543" fromLane="0" toLane="0"/>
    <connection from="-11547" to="-11112" fromLane="0" toLane="1"/>
    <connection from="-11547" to="11547" fromLane="0" toLane="0"/>

    <connection from="-1155" to="61" fromLane="0" toLane="0"/>
    <connection from="-1155" to="61" fromLane="0" toLane="1"/>
    <connection from="-1155" to="-31" fromLane="0" toLane="1"/>
    <connection from="-1155" to="1155" fromLane="0" toLane="0"/>

    <connection from="-11556" to="-5185" fromLane="0" toLane="0"/>
    <connection from="-11556" to="6021" fromLane="0" toLane="0"/>
    <connection from="-11556" to="11556" fromLane="0" toLane="0"/>

    <connection from="-1156" to="-27" fromLane="0" toLane="0"/>
    <connection from="-1156" to="-24" fromLane="0" toLane="0"/>
    <connection from="-1156" to="1156" fromLane="0" toLane="0"/>

    <connection from="-11563" to="11567" fromLane="0" toLane="0"/>
    <connection from="-11563" to="-11132" fromLane="0" toLane="0"/>
    <connection from="-11563" to="-11132" fromLane="0" toLane="1"/>
    <connection from="-11563" to="-11128" fromLane="0" toLane="0"/>
    <connection from="-11563" to="11563" fromLane="0" toLane="0"/>

    <connection from="-11567" to="-11132" fromLane="0" toLane="0"/>
    <connection from="-11567" to="-11128" fromLane="0" toLane="0"/>
    <connection from="-11567" to="11563" fromLane="1" toLane="0"/>
    <connection from="-11567" to="11567" fromLane="1" toLane="1"/>

    <connection from="-11568" to="11605" fromLane="0" toLane="0"/>
    <connection from="-11568" to="11569" fromLane="0" toLane="0"/>
    <connection from="-11568" to="11128" fromLane="0" toLane="0"/>
    <connection from="-11568" to="11128" fromLane="1" toLane="1"/>
    <connection from="-11568" to="-8086" fromLane="1" toLane="1"/>
    <connection from="-11568" to="11568" fromLane="1" toLane="0"/>

    <connection from="-11569" to="11128" fromLane="0" toLane="0"/>
    <connection from="-11569" to="-8086" fromLane="0" toLane="0"/>
    <connection from="-11569" to="-8086" fromLane="1" toLane="1"/>
    <connection from="-11569" to="11568" fromLane="1" toLane="0"/>
    <connection from="-11569" to="11605" fromLane="1" toLane="0"/>
    <connection from="-11569" to="11569" fromLane="1" toLane="0"/>

    <connection from="-1159" to="1163" fromLane="0" toLane="0"/>
    <connection from="-1159" to="-1130" fromLane="0" toLane="0"/>
    <connection from="-1159" to="1167" fromLane="1" toLane="0"/>
    <connection from="-1159" to="1159" fromLane="1" toLane="1"/>

    <connection from="-11605" to="11569" fromLane="0" toLane="0"/>
    <connection from="-11605" to="11128" fromLane="0" toLane="0"/>
    <connection from="-11605" to="-8086" fromLane="0" toLane="0"/>
    <connection from="-11605" to="-8086" fromLane="1" toLane="1"/>
    <connection from="-11605" to="11568" fromLane="1" toLane="0"/>
    <connection from="-11605" to="11605" fromLane="1" toLane="0"/>

    <connection from="-11613" to="-11131" fromLane="0" toLane="0"/>
    <connection from="-11613" to="11614" fromLane="1" toLane="0"/>
    <connection from="-11613" to="11613" fromLane="1" toLane="0"/>

    <connection from="-11614" to="11613" fromLane="0" toLane="0"/>
    <connection from="-11614" to="-11131" fromLane="0" toLane="0"/>
    <connection from="-11614" to="11614" fromLane="0" toLane="0"/>

    <connection from="-1163" to="-1130" fromLane="0" toLane="0"/>
    <connection from="-1163" to="1167" fromLane="0" toLane="0"/>
    <connection from="-1163" to="1159" fromLane="0" toLane="1"/>
    <connection from="-1163" to="1163" fromLane="0" toLane="1"/>

    <connection from="-1167" to="1159" fromLane="0" toLane="0"/>
    <connection from="-1167" to="1163" fromLane="0" toLane="0"/>
    <connection from="-1167" to="1163" fromLane="1" toLane="1"/>
    <connection from="-1167" to="-1130" fromLane="1" toLane="0"/>
    <connection from="-1167" to="1167" fromLane="1" toLane="0"/>

    <connection from="-11729" to="11737" fromLane="0" toLane="0"/>
    <connection from="-11729" to="-11151" fromLane="0" toLane="0"/>
    <connection from="-11729" to="-11146" fromLane="0" toLane="1"/>
    <connection from="-11729" to="11729" fromLane="0" toLane="0"/>

    <connection from="-1173" to="1179" fromLane="0" toLane="0"/>
    <connection from="-1173" to="-1109" fromLane="0" toLane="0"/>
    <connection from="-1173" to="-1109" fromLane="1" toLane="1"/>
    <connection from="-1173" to="-2735" fromLane="1" toLane="1"/>
    <connection from="-1173" to="1173" fromLane="1" toLane="0"/>

    <connection from="-11737" to="-11151" fromLane="0" toLane="0"/>
    <connection from="-11737" to="-11146" fromLane="0" toLane="0"/>
    <connection from="-11737" to="-11146" fromLane="1" toLane="1"/>
    <connection from="-11737" to="11729" fromLane="1" toLane="0"/>
    <connection from="-11737" to="11737" fromLane="1" toLane="0"/>

    <connection from="-1179" to="-1109" fromLane="0" toLane="0"/>
    <connection from="-1179" to="-2735" fromLane="0" toLane="1"/>
    <connection from="-1179" to="1173" fromLane="0" toLane="0"/>
    <connection from="-1179" to="1179" fromLane="0" toLane="1"/>

    <connection from="-1183" to="-516" fromLane="0" toLane="0"/>
    <connection from="-1183" to="-1093" fromLane="0" toLane="0"/>
    <connection from="-1183" to="-1093" fromLane="1" toLane="1"/>
    <connection from="-1183" to="1183" fromLane="1" toLane="0"/>

    <connection from="-1184" to="1194" fromLane="0" toLane="0"/>
    <connection from="-1184" to="-544" fromLane="0" toLane="0"/>
    <connection from="-1184" to="-518" fromLane="0" toLane="1"/>
    <connection from="-1184" to="1184" fromLane="0" toLane="0"/>

    <connection from="-11841" to="11845" fromLane="0" toLane="0"/>
    <connection from="-11841" to="-11150" fromLane="1" toLane="0"/>
    <connection from="-11841" to="11841" fromLane="1" toLane="1"/>

    <connection from="-11845" to="-11150" fromLane="0" toLane="0"/>
    <connection from="-11845" to="11841" fromLane="1" toLane="1"/>
    <connection from="-11845" to="11845" fromLane="1" toLane="0"/>

    <connection from="-11846" to="11892" fromLane="0" toLane="0"/>
    <connection from="-11846" to="11852" fromLane="0" toLane="0"/>
    <connection from="-11846" to="-11157" fromLane="0" toLane="1"/>
    <connection from="-11846" to="11846" fromLane="0" toLane="0"/>

    <connection from="-11852" to="-11157" fromLane="0" toLane="0"/>
    <connection from="-11852" to="11846" fromLane="0" toLane="0"/>
    <connection from="-11852" to="11892" fromLane="0" toLane="0"/>
    <connection from="-11852" to="11852" fromLane="0" toLane="0"/>

    <connection from="-11892" to="11852" fromLane="0" toLane="0"/>
    <connection from="-11892" to="-11157" fromLane="0" toLane="0"/>
    <connection from="-11892" to="-11157" fromLane="1" toLane="1"/>
    <connection from="-11892" to="11846" fromLane="1" toLane="0"/>
    <connection from="-11892" to="11892" fromLane="1" toLane="0"/>
