<?xml version="1.0" encoding="UTF-8"?>

<!-- generated on 2025-10-03 15:08:20 by Eclipse SUMO netconvert Version 1.23.1
<netconvertConfiguration xmlns:xsi="http://www.w3.org/2001/XMLSchema-instance" xsi:noNamespaceSchemaLocation="http://sumo.dlr.de/xsd/netconvertConfiguration.xsd">

    <input>
        <sumo-net-file value="random.net.xml"/>
    </input>

    <output>
        <plain-output-prefix value="random"/>
    </output>

    <processing>
        <geometry.min-radius.fix.railways value="false"/>
        <geometry.avoid-overlap value="false"/>
        <geometry.max-grade.fix value="false"/>
        <offset.disable-normalization value="true"/>
        <lefthand value="0"/>
    </processing>

    <junctions>
        <no-turnarounds value="true"/>
        <junctions.corner-detail value="5"/>
        <junctions.limit-turn-speed value="5.50"/>
        <rectangular-lane-cut value="0"/>
    </junctions>

    <pedestrian>
        <walkingareas value="0"/>
    </pedestrian>

</netconvertConfiguration>
-->

<nodes version="1.20" xmlns:xsi="http://www.w3.org/2001/XMLSchema-instance" xsi:noNamespaceSchemaLocation="http://sumo.dlr.de/xsd/nodes_file.xsd">
    <location netOffset="4500.00,5700.00" convBoundary="0.00,0.00,8300.00,8900.00" origBoundary="-4500.00,-5700.00,3800.00,3200.00" projParameter="!"/>

    <node id="1" x="4500.00" y="5700.00" type="priority"/>
    <node id="10002" x="6100.00" y="5100.00" type="priority"/>
    <node id="10234" x="5200.00" y="3100.00" type="priority"/>
    <node id="10271" x="3300.00" y="4700.00" type="priority"/>
    <node id="10283" x="3900.00" y="7200.00" type="priority"/>
    <node id="10289" x="4000.00" y="7100.00" type="priority"/>
    <node id="10302" x="3200.00" y="5700.00" type="priority"/>
    <node id="10336" x="3300.00" y="5800.00" type="priority"/>
    <node id="10348" x="5400.00" y="7200.00" type="priority"/>
    <node id="10350" x="5600.00" y="7100.00" type="priority"/>
    <node id="10365" x="5700.00" y="3500.00" type="priority"/>
    <node id="1037" x="4600.00" y="5000.00" type="priority"/>
    <node id="10373" x="5500.00" y="3300.00" type="priority"/>
    <node id="10380" x="5900.00" y="3700.00" type="priority"/>
    <node id="10383" x="5200.00" y="3400.00" type="priority"/>
    <node id="10395" x="5200.00" y="3800.00" type="priority"/>
    <node id="10408" x="6000.00" y="5200.00" type="priority"/>
    <node id="10416" x="5700.00" y="4900.00" type="priority"/>
    <node id="1042" x="4200.00" y="5200.00" type="priority"/>
    <node id="1060" x="4700.00" y="5000.00" type="priority"/>
    <node id="10741" x="5300.00" y="3100.00" type="priority"/>
    <node id="10743" x="5200.00" y="3200.00" type="priority"/>
    <node id="10756" x="3500.00" y="5400.00" type="priority"/>
    <node id="10790" x="3700.00" y="5400.00" type="priority"/>
    <node id="10897" x="3100.00" y="4700.00" type="priority"/>
    <node id="11015" x="4100.00" y="7100.00" type="priority"/>
    <node id="1108" x="5000.00" y="4800.00" type="priority"/>
    <node id="11087" x="4000.00" y="7300.00" type="priority"/>
    <node id="11095" x="3000.00" y="5700.00" type="priority"/>
    <node id="11101" x="3100.00" y="5800.00" type="priority"/>
    <node id="11111" x="3300.00" y="6000.00" type="priority"/>
    <node id="11127" x="5400.00" y="6000.00" type="priority"/>
    <node id="11130" x="5200.00" y="6200.00" type="priority"/>
    <node id="11145" x="5900.00" y="3500.00" type="priority"/>
    <node id="11147" x="5300.00" y="3300.00" type="priority"/>
    <node id="11149" x="5600.00" y="3300.00" type="priority"/>
    <node id="11156" x="6100.00" y="3700.00" type="priority"/>
    <node id="1120" x="4600.00" y="4900.00" type="priority"/>
    <node id="11266" x="5100.00" y="3800.00" type="priority"/>
    <node id="11288" x="5200.00" y="3900.00" type="priority"/>
    <node id="1129" x="5000.00" y="6200.00" type="priority"/>
    <node id="11302" x="5900.00" y="5200.00" type="priority"/>
    <node id="11315" x="5800.00" y="4900.00" type="priority"/>
    <node id="11421" x="5900.00" y="5300.00" type="priority"/>
    <node id="11425" x="5800.00" y="5700.00" type="priority"/>
    <node id="11439" x="4400.00" y="3200.00" type="priority"/>
    <node id="11452" x="5300.00" y="2900.00" type="priority"/>
    <node id="1146" x="4500.00" y="4900.00" type="priority"/>
    <node id="11462" x="5200.00" y="3300.00" type="priority"/>
    <node id="11470" x="3500.00" y="5300.00" type="priority"/>
    <node id="11472" x="3400.00" y="5400.00" type="priority"/>
    <node id="11475" x="3100.00" y="4500.00" type="priority"/>
    <node id="1148" x="4600.00" y="4800.00" type="priority"/>
    <node id="11487" x="3100.00" y="4800.00" type="priority"/>
    <node id="11499" x="3000.00" y="5600.00" type="priority"/>
    <node id="11527" x="3100.00" y="6000.00" type="priority"/>
    <node id="1154" x="4300.00" y="5700.00" type="priority"/>
    <node id="11541" x="2900.00" y="5800.00" type="priority"/>
    <node id="11546" x="3300.00" y="6100.00" type="priority"/>
    <node id="11555" x="4800.00" y="7000.00" type="priority"/>
    <node id="11562" x="5500.00" y="6000.00" type="priority"/>
    <node id="11566" x="5400.00" y="6100.00" type="priority"/>
    <node id="1158" x="5000.00" y="6300.00" type="priority"/>
    <node id="11604" x="5600.00" y="5900.00" type="priority"/>
    <node id="11612" x="5200.00" y="6300.00" type="priority"/>
    <node id="1162" x="4800.00" y="6200.00" type="priority"/>
    <node id="1166" x="5100.00" y="6200.00" type="priority"/>
    <node id="1172" x="5000.00" y="4700.00" type="priority"/>
    <node id="11728" x="5900.00" y="3300.00" type="priority"/>
    <node id="11736" x="6000.00" y="3500.00" type="priority"/>
    <node id="1178" x="5200.00" y="4800.00" type="priority"/>
    <node id="1182" x="5300.00" y="5000.00" type="priority"/>
    <node id="11840" x="5600.00" y="3200.00" type="priority"/>
    <node id="11844" x="5700.00" y="3300.00" type="priority"/>
    <node id="11851" x="6100.00" y="3800.00" type="priority"/>
    <node id="11891" x="6300.00" y="3700.00" type="priority"/>
    <node id="1193" x="5500.00" y="5100.00" type="priority"/>
    <node id="11998" x="4900.00" y="3800.00" type="priority"/>
    <node id="12" x="4500.00" y="5800.00" type="priority"/>
    <node id="12006" x="5100.00" y="3700.00" type="priority"/>
    <node id="12223" x="6000.00" y="4900.00" type="priority"/>
    <node id="12330" x="6000.00" y="5700.00" type="priority"/>
    <node id="12354" x="5800.00" y="5800.00" type="priority"/>
    <node id="12373" x="5300.00" y="5700.00" type="priority"/>
    <node id="12388" x="4600.00" y="3200.00" type="priority"/>
    <node id="12395" x="5400.00" y="2900.00" type="priority"/>
    <node id="12403" x="5100.00" y="2900.00" type="priority"/>
    <node id="12409" x="5300.00" y="2800.00" type="priority"/>
    <node id="12424" x="3200.00" y="5400.00" type="priority"/>
    <node id="12480" x="3400.00" y="5200.00" type="priority"/>
    <node id="12584" x="3200.00" y="4500.00" type="priority"/>
    <node id="12588" x="3000.00" y="4500.00" type="priority"/>
    <node id="12590" x="3100.00" y="5000.00" type="priority"/>
    <node id="12596" x="2900.00" y="4800.00" type="priority"/>
    <node id="12598" x="3200.00" y="4800.00" type="priority"/>
    <node id="12602" x="4100.00" y="7300.00" type="priority"/>
    <node id="12624" x="4800.00" y="7100.00" type="priority"/>
    <node id="12626" x="4600.00" y="7000.00" type="priority"/>
    <node id="12734" x="5700.00" y="6800.00" type="priority"/>
    <node id="12740" x="5600.00" y="6100.00" type="priority"/>
    <node id="12744" x="5400.00" y="6300.00" type="priority"/>
    <node id="12750" x="5200.00" y="6500.00" type="priority"/>
    <node id="12859" x="5800.00" y="3300.00" type="priority"/>
    <node id="12872" x="6200.00" y="5100.00" type="priority"/>
    <node id="12997" x="6000.00" y="5500.00" type="priority"/>
    <node id="13007" x="5300.00" y="5800.00" type="priority"/>
    <node id="13209" x="4600.00" y="3000.00" type="priority"/>
    <node id="13214" x="5400.00" y="2800.00" type="priority"/>
    <node id="13220" x="5500.00" y="2900.00" type="priority"/>
    <node id="13336" x="3500.00" y="5200.00" type="priority"/>
    <node id="13340" x="3200.00" y="5300.00" type="priority"/>
    <node id="13348" x="3200.00" y="5500.00" type="priority"/>
    <node id="13453" x="3200.00" y="4400.00" type="priority"/>
    <node id="13455" x="3300.00" y="4500.00" type="priority"/>
    <node id="13467" x="3200.00" y="4600.00" type="priority"/>
    <node id="1354" x="4300.00" y="5900.00" type="priority"/>
    <node id="13576" x="2900.00" y="4700.00" type="priority"/>
    <node id="13580" x="2900.00" y="5000.00" type="priority"/>
    <node id="13586" x="4100.00" y="7400.00" type="priority"/>
    <node id="13616" x="5700.00" y="6600.00" type="priority"/>
    <node id="13618" x="5800.00" y="6900.00" type="priority"/>
    <node id="1366" x="4100.00" y="5700.00" type="priority"/>
    <node id="13724" x="5500.00" y="6300.00" type="priority"/>
    <node id="13730" x="5400.00" y="6500.00" type="priority"/>
    <node id="13839" x="6000.00" y="3400.00" type="priority"/>
    <node id="1386" x="5100.00" y="6400.00" type="priority"/>
    <node id="13864" x="6400.00" y="5100.00" type="priority"/>
    <node id="13866" x="6200.00" y="5200.00" type="priority"/>
    <node id="1396" x="5600.00" y="5500.00" type="priority"/>
    <node id="1398" x="5500.00" y="5600.00" type="priority"/>
    <node id="1414" x="4100.00" y="5400.00" type="priority"/>
    <node id="14198" x="4500.00" y="3400.00" type="priority"/>
    <node id="1420" x="4200.00" y="5600.00" type="priority"/>
    <node id="14203" x="4600.00" y="2900.00" type="priority"/>
    <node id="14210" x="5600.00" y="2800.00" type="priority"/>
    <node id="14214" x="5400.00" y="2700.00" type="priority"/>
    <node id="14318" x="5100.00" y="2800.00" type="priority"/>
    <node id="14322" x="5100.00" y="3000.00" type="priority"/>
    <node id="1436" x="4400.00" y="5900.00" type="priority"/>
    <node id="1438" x="4300.00" y="6100.00" type="priority"/>
    <node id="1440" x="4100.00" y="5600.00" type="priority"/>
    <node id="1445" x="4600.00" y="6000.00" type="priority"/>
    <node id="14528" x="3100.00" y="5300.00" type="priority"/>
    <node id="14536" x="3500.00" y="4500.00" type="priority"/>
    <node id="14558" x="3400.00" y="4600.00" type="priority"/>
    <node id="14665" x="2800.00" y="4700.00" type="priority"/>
    <node id="14774" x="4300.00" y="7400.00" type="priority"/>
    <node id="1479" x="4800.00" y="5900.00" type="priority"/>
    <node id="14795" x="4000.00" y="7500.00" type="priority"/>
    <node id="14810" x="3900.00" y="6400.00" type="priority"/>
    <node id="14820" x="3300.00" y="6600.00" type="priority"/>
    <node id="14866" x="4000.00" y="6100.00" type="priority"/>
    <node id="14876" x="5800.00" y="6600.00" type="priority"/>
    <node id="14880" x="5800.00" y="6800.00" type="priority"/>
    <node id="14886" x="5800.00" y="7000.00" type="priority"/>
    <node id="14889" x="5700.00" y="6100.00" type="priority"/>
    <node id="14896" x="5200.00" y="6600.00" type="priority"/>
    <node id="15012" x="6100.00" y="3400.00" type="priority"/>
    <node id="15016" x="6000.00" y="3200.00" type="priority"/>
    <node id="15028" x="6200.00" y="3500.00" type="priority"/>
    <node id="15050" x="6000.00" y="5400.00" type="priority"/>
    <node id="15166" x="4500.00" y="2900.00" type="priority"/>
    <node id="15174" x="4600.00" y="2700.00" type="priority"/>
    <node id="15182" x="4900.00" y="2800.00" type="priority"/>
    <node id="15186" x="5100.00" y="2700.00" type="priority"/>
    <node id="15194" x="5200.00" y="2800.00" type="priority"/>
    <node id="15409" x="3500.00" y="4400.00" type="priority"/>
    <node id="15439" x="3600.00" y="4600.00" type="priority"/>
    <node id="15447" x="2600.00" y="4700.00" type="priority"/>
    <node id="15451" x="2800.00" y="4800.00" type="priority"/>
    <node id="15457" x="2800.00" y="4600.00" type="priority"/>
    <node id="15564" x="4400.00" y="7400.00" type="priority"/>
    <node id="15566" x="4300.00" y="7500.00" type="priority"/>
    <node id="15580" x="4300.00" y="7300.00" type="priority"/>
    <node id="15582" x="4200.00" y="7100.00" type="priority"/>
    <node id="15584" x="4000.00" y="7700.00" type="priority"/>
    <node id="15590" x="4100.00" y="7500.00" type="priority"/>
    <node id="15592" x="3900.00" y="7500.00" type="priority"/>
    <node id="15807" x="3100.00" y="6600.00" type="priority"/>
    <node id="15809" x="3500.00" y="6600.00" type="priority"/>
    <node id="1585" x="5100.00" y="6500.00" type="priority"/>
    <node id="15922" x="5900.00" y="6600.00" type="priority"/>
    <node id="15926" x="5800.00" y="6500.00" type="priority"/>
    <node id="15930" x="5900.00" y="6100.00" type="priority"/>
    <node id="15932" x="5700.00" y="6000.00" type="priority"/>
    <node id="15936" x="5700.00" y="6200.00" type="priority"/>
    <node id="1595" x="5700.00" y="5500.00" type="priority"/>
    <node id="15960" x="6000.00" y="5300.00" type="priority"/>
    <node id="15964" x="6200.00" y="5400.00" type="priority"/>
    <node id="1599" x="5600.00" y="5400.00" type="priority"/>
    <node id="15993" x="5000.00" y="3000.00" type="priority"/>
    <node id="16011" x="5200.00" y="3000.00" type="priority"/>
    <node id="1610" x="5500.00" y="5700.00" type="priority"/>
    <node id="1623" x="4000.00" y="5600.00" type="priority"/>
    <node id="16273" x="3500.00" y="6700.00" type="priority"/>
    <node id="16287" x="5800.00" y="6400.00" type="priority"/>
    <node id="16300" x="5800.00" y="3200.00" type="priority"/>
    <node id="16334" x="4200.00" y="3900.00" type="priority"/>
    <node id="16350" x="4500.00" y="2700.00" type="priority"/>
    <node id="16359" x="4900.00" y="2700.00" type="priority"/>
    <node id="16468" x="3400.00" y="4400.00" type="priority"/>
    <node id="16494" x="4700.00" y="6800.00" type="priority"/>
    <node id="16518" x="3500.00" y="6800.00" type="priority"/>
    <node id="16534" x="3400.00" y="6700.00" type="priority"/>
    <node id="16565" x="5800.00" y="3100.00" type="priority"/>
    <node id="16576" x="5000.00" y="3700.00" type="priority"/>
    <node id="16684" x="6400.00" y="5000.00" type="priority"/>
    <node id="16686" x="6600.00" y="5100.00" type="priority"/>
    <node id="16702" x="6400.00" y="5200.00" type="priority"/>
    <node id="16824" x="4300.00" y="2700.00" type="priority"/>
    <node id="16828" x="4500.00" y="2600.00" type="priority"/>
    <node id="16835" x="5400.00" y="2500.00" type="priority"/>
    <node id="16862" x="4800.00" y="2800.00" type="priority"/>
    <node id="16993" x="3400.00" y="4200.00" type="priority"/>
    <node id="16996" x="3600.00" y="4500.00" type="priority"/>
    <node id="16998" x="3700.00" y="4600.00" type="priority"/>
    <node id="17008" x="3600.00" y="4700.00" type="priority"/>
    <node id="17014" x="2700.00" y="4600.00" type="priority"/>
    <node id="17022" x="3200.00" y="5000.00" type="priority"/>
    <node id="17179" x="3500.00" y="7000.00" type="priority"/>
    <node id="17193" x="3600.00" y="6200.00" type="priority"/>
    <node id="17307" x="5900.00" y="6800.00" type="priority"/>
    <node id="17347" x="5900.00" y="6200.00" type="priority"/>
    <node id="17489" x="5800.00" y="2800.00" type="priority"/>
    <node id="17499" x="5600.00" y="2600.00" type="priority"/>
    <node id="17549" x="5600.00" y="3000.00" type="priority"/>
    <node id="1760" x="5500.00" y="5000.00" type="priority"/>
    <node id="17657" x="3300.00" y="4200.00" type="priority"/>
    <node id="17667" x="3800.00" y="4500.00" type="priority"/>
    <node id="1767" x="5500.00" y="5200.00" type="priority"/>
    <node id="17671" x="3600.00" y="4800.00" type="priority"/>
    <node id="17683" x="2700.00" y="4500.00" type="priority"/>
    <node id="1769" x="5600.00" y="5100.00" type="priority"/>
    <node id="17729" x="2500.00" y="4600.00" type="priority"/>
    <node id="1773" x="5500.00" y="5400.00" type="priority"/>
    <node id="17862" x="3200.00" y="5100.00" type="priority"/>
    <node id="17985" x="3800.00" y="6900.00" type="priority"/>
    <node id="18351" x="3800.00" y="3900.00" type="priority"/>
    <node id="18363" x="4300.00" y="2900.00" type="priority"/>
    <node id="18365" x="4500.00" y="3000.00" type="priority"/>
    <node id="18372" x="5900.00" y="2800.00" type="priority"/>
    <node id="18374" x="5800.00" y="2900.00" type="priority"/>
    <node id="18389" x="5800.00" y="2600.00" type="priority"/>
    <node id="18391" x="5600.00" y="3100.00" type="priority"/>
    <node id="18395" x="5200.00" y="2500.00" type="priority"/>
    <node id="18415" x="5400.00" y="2400.00" type="priority"/>
    <node id="18436" x="3300.00" y="4100.00" type="priority"/>
    <node id="18456" x="3100.00" y="4200.00" type="priority"/>
    <node id="18461" x="3800.00" y="4800.00" type="priority"/>
    <node id="18574" x="3000.00" y="5100.00" type="priority"/>
    <node id="18696" x="3800.00" y="6800.00" type="priority"/>
    <node id="18806" x="4900.00" y="7100.00" type="priority"/>
    <node id="18808" x="4800.00" y="7300.00" type="priority"/>
    <node id="18820" x="4700.00" y="7100.00" type="priority"/>
    <node id="18856" x="3700.00" y="3800.00" type="priority"/>
    <node id="18864" x="3900.00" y="3700.00" type="priority"/>
    <node id="1889" x="4100.00" y="5800.00" type="priority"/>
    <node id="18891" x="5800.00" y="2500.00" type="priority"/>
    <node id="18914" x="3800.00" y="4700.00" type="priority"/>
    <node id="1899" x="4900.00" y="6300.00" type="priority"/>
    <node id="19019" x="2800.00" y="4500.00" type="priority"/>
    <node id="19045" x="2800.00" y="5100.00" type="priority"/>
    <node id="1919" x="5400.00" y="5400.00" type="priority"/>
    <node id="19207" x="5900.00" y="2500.00" type="priority"/>
    <node id="19217" x="5800.00" y="2300.00" type="priority"/>
    <node id="19223" x="5700.00" y="2500.00" type="priority"/>
    <node id="19444" x="2800.00" y="5300.00" type="priority"/>
    <node id="19468" x="2600.00" y="5100.00" type="priority"/>
    <node id="19476" x="3900.00" y="7400.00" type="priority"/>
    <node id="19517" x="6000.00" y="3100.00" type="priority"/>
    <node id="19522" x="5800.00" y="3400.00" type="priority"/>
    <node id="19555" x="5500.00" y="3100.00" type="priority"/>
    <node id="19672" x="2700.00" y="4800.00" type="priority"/>
    <node id="19696" x="2800.00" y="4900.00" type="priority"/>
    <node id="19700" x="2900.00" y="5300.00" type="priority"/>
    <node id="19714" x="2700.00" y="5300.00" type="priority"/>
    <node id="19716" x="2800.00" y="5500.00" type="priority"/>
    <node id="19822" x="4000.00" y="7900.00" type="priority"/>
    <node id="19935" x="3400.00" y="7100.00" type="priority"/>
    <node id="19962" x="6100.00" y="3100.00" type="priority"/>
    <node id="19971" x="5700.00" y="3400.00" type="priority"/>
    <node id="2" x="4600.00" y="5700.00" type="priority"/>
    <node id="20083" x="5800.00" y="4100.00" type="priority"/>
    <node id="20099" x="4300.00" y="2800.00" type="priority"/>
    <node id="20115" x="5500.00" y="3200.00" type="priority"/>
    <node id="20119" x="5400.00" y="3100.00" type="priority"/>
    <node id="20127" x="5500.00" y="3000.00" type="priority"/>
    <node id="20148" x="2500.00" y="4800.00" type="priority"/>
    <node id="20186" x="2700.00" y="5000.00" type="priority"/>
    <node id="20293" x="2900.00" y="5400.00" type="priority"/>
    <node id="20304" x="2500.00" y="5100.00" type="priority"/>
    <node id="20312" x="3900.00" y="7900.00" type="priority"/>
    <node id="20314" x="4000.00" y="8100.00" type="priority"/>
    <node id="20318" x="4200.00" y="7900.00" type="priority"/>
    <node id="20323" x="3400.00" y="7000.00" type="priority"/>
    <node id="20325" x="3300.00" y="7100.00" type="priority"/>
    <node id="2033" x="4700.00" y="5200.00" type="priority"/>
    <node id="20332" x="3000.00" y="6600.00" type="priority"/>
    <node id="20354" x="6100.00" y="3300.00" type="priority"/>
    <node id="20356" x="6200.00" y="3100.00" type="priority"/>
    <node id="20364" x="5600.00" y="3400.00" type="priority"/>
    <node id="20472" x="5000.00" y="3900.00" type="priority"/>
    <node id="20477" x="6100.00" y="4000.00" type="priority"/>
    <node id="2051" x="4900.00" y="6400.00" type="priority"/>
    <node id="2059" x="4700.00" y="6300.00" type="priority"/>
    <node id="20690" x="6000.00" y="5800.00" type="priority"/>
    <node id="20699" x="4100.00" y="2800.00" type="priority"/>
    <node id="2070" x="5500.00" y="4800.00" type="priority"/>
    <node id="20701" x="4400.00" y="2800.00" type="priority"/>
    <node id="20706" x="4400.00" y="2600.00" type="priority"/>
    <node id="208" x="5000.00" y="5500.00" type="priority"/>
    <node id="2084" x="4200.00" y="4900.00" type="priority"/>
    <node id="2086" x="4100.00" y="5100.00" type="priority"/>
    <node id="20937" x="2500.00" y="4900.00" type="priority"/>
    <node id="20943" x="2300.00" y="4800.00" type="priority"/>
    <node id="20959" x="2500.00" y="5300.00" type="priority"/>
    <node id="20997" x="2300.00" y="5100.00" type="priority"/>
    <node id="21003" x="4200.00" y="8000.00" type="priority"/>
    <node id="21013" x="4300.00" y="7900.00" type="priority"/>
    <node id="21015" x="4200.00" y="7700.00" type="priority"/>
    <node id="21024" x="3900.00" y="7600.00" type="priority"/>
    <node id="21030" x="3400.00" y="6900.00" type="priority"/>
    <node id="21042" x="3200.00" y="7000.00" type="priority"/>
    <node id="211" x="4300.00" y="5100.00" type="priority"/>
    <node id="21178" x="6400.00" y="3700.00" type="priority"/>
    <node id="21192" x="4800.00" y="3900.00" type="priority"/>
    <node id="21204" x="6300.00" y="4000.00" type="priority"/>
    <node id="21210" x="4900.00" y="4100.00" type="priority"/>
    <node id="21217" x="6300.00" y="5400.00" type="priority"/>
    <node id="21224" x="6200.00" y="5800.00" type="priority"/>
    <node id="21226" x="6000.00" y="5900.00" type="priority"/>
    <node id="21235" x="4400.00" y="3000.00" type="priority"/>
    <node id="21239" x="4500.00" y="3100.00" type="dead_end"/>
    <node id="21344" x="4400.00" y="2500.00" type="priority"/>
    <node id="21354" x="5700.00" y="2400.00" type="priority"/>
    <node id="21467" x="2300.00" y="4900.00" type="priority"/>
    <node id="21483" x="2500.00" y="5400.00" type="priority"/>
    <node id="21490" x="2300.00" y="5200.00" type="priority"/>
    <node id="21524" x="4200.00" y="8200.00" type="priority"/>
    <node id="21533" x="3700.00" y="7600.00" type="priority"/>
    <node id="21545" x="3900.00" y="7800.00" type="priority"/>
    <node id="21656" x="3100.00" y="7100.00" type="priority"/>
    <node id="21689" x="6400.00" y="3800.00" type="priority"/>
    <node id="21691" x="6400.00" y="3500.00" type="priority"/>
    <node id="21709" x="6600.00" y="3700.00" type="priority"/>
    <node id="21928" x="4700.00" y="4100.00" type="priority"/>
    <node id="21936" x="6300.00" y="5500.00" type="priority"/>
    <node id="21941" x="3600.00" y="3800.00" type="priority"/>
    <node id="21948" x="4100.00" y="2900.00" type="priority"/>
    <node id="21954" x="4000.00" y="2800.00" type="priority"/>
    <node id="22063" x="4200.00" y="2500.00" type="priority"/>
    <node id="22065" x="4600.00" y="2500.00" type="priority"/>
    <node id="22075" x="5700.00" y="2200.00" type="priority"/>
    <node id="2208" x="5500.00" y="4700.00" type="priority"/>
    <node id="22084" x="3400.00" y="4100.00" type="priority"/>
    <node id="221" x="4800.00" y="5500.00" type="priority"/>
    <node id="22100" x="2300.00" y="5400.00" type="priority"/>
    <node id="22102" x="2100.00" y="5200.00" type="priority"/>
    <node id="2212" x="5600.00" y="4800.00" type="priority"/>
    <node id="22212" x="4300.00" y="8200.00" type="priority"/>
    <node id="22214" x="4200.00" y="8300.00" type="priority"/>
    <node id="22232" x="4400.00" y="7900.00" type="priority"/>
    <node id="22234" x="4300.00" y="7700.00" type="priority"/>
    <node id="2224" x="5400.00" y="4800.00" type="priority"/>
    <node id="223" x="5000.00" y="5300.00" type="priority"/>
    <node id="22339" x="3700.00" y="7800.00" type="priority"/>
    <node id="22445" x="3300.00" y="6900.00" type="priority"/>
    <node id="22454" x="3000.00" y="7000.00" type="priority"/>
    <node id="22464" x="3000.00" y="5400.00" type="priority"/>
    <node id="22467" x="2900.00" y="6000.00" type="priority"/>
    <node id="22469" x="2900.00" y="5700.00" type="priority"/>
    <node id="22512" x="6300.00" y="4200.00" type="priority"/>
    <node id="22590" x="6500.00" y="4000.00" type="priority"/>
    <node id="226" x="4500.00" y="5100.00" type="priority"/>
    <node id="22612" x="4700.00" y="4200.00" type="priority"/>
    <node id="22722" x="6300.00" y="5600.00" type="priority"/>
    <node id="22728" x="6100.00" y="5500.00" type="priority"/>
    <node id="22733" x="3500.00" y="3800.00" type="priority"/>
    <node id="22735" x="3600.00" y="3700.00" type="priority"/>
    <node id="22740" x="4200.00" y="2900.00" type="priority"/>
    <node id="22747" x="3900.00" y="2900.00" type="priority"/>
    <node id="22749" x="4100.00" y="3100.00" type="priority"/>
    <node id="22754" x="4200.00" y="2400.00" type="priority"/>
    <node id="22756" x="4200.00" y="2700.00" type="priority"/>
    <node id="22758" x="4800.00" y="2500.00" type="priority"/>
    <node id="22764" x="4600.00" y="2400.00" type="priority"/>
    <node id="228" x="4300.00" y="4900.00" type="priority"/>
    <node id="22873" x="5700.00" y="2100.00" type="priority"/>
    <node id="22890" x="3500.00" y="4100.00" type="priority"/>
    <node id="22892" x="3400.00" y="4000.00" type="priority"/>
    <node id="23" x="4400.00" y="5800.00" type="priority"/>
    <node id="23010" x="3000.00" y="4300.00" type="priority"/>
    <node id="23024" x="2900.00" y="5200.00" type="priority"/>
    <node id="23031" x="2300.00" y="5600.00" type="priority"/>
    <node id="23043" x="2200.00" y="5400.00" type="priority"/>
    <node id="23052" x="2000.00" y="5200.00" type="priority"/>
    <node id="23058" x="2100.00" y="5000.00" type="priority"/>
    <node id="23065" x="4300.00" y="8400.00" type="priority"/>
    <node id="23072" x="3700.00" y="7500.00" type="priority"/>
    <node id="23079" x="3300.00" y="6800.00" type="priority"/>
    <node id="23081" x="3100.00" y="6900.00" type="priority"/>
    <node id="23192" x="3000.00" y="6800.00" type="priority"/>
    <node id="23196" x="2900.00" y="6100.00" type="priority"/>
    <node id="23205" x="3100.00" y="6100.00" type="priority"/>
    <node id="23314" x="3400.00" y="6500.00" type="priority"/>
    <node id="23323" x="4600.00" y="7100.00" type="priority"/>
    <node id="2336" x="4300.00" y="4800.00" type="priority"/>
    <node id="23368" x="6500.00" y="4200.00" type="priority"/>
    <node id="23396" x="6300.00" y="4400.00" type="priority"/>
    <node id="236" x="4200.00" y="5100.00" type="priority"/>
    <node id="23621" x="3500.00" y="3600.00" type="priority"/>
    <node id="23625" x="3900.00" y="3500.00" type="priority"/>
    <node id="23629" x="4100.00" y="3700.00" type="priority"/>
    <node id="23657" x="3800.00" y="3700.00" type="priority"/>
    <node id="23661" x="3900.00" y="3000.00" type="priority"/>
    <node id="23663" x="3900.00" y="2700.00" type="priority"/>
    <node id="23679" x="3800.00" y="2900.00" type="priority"/>
    <node id="23685" x="4100.00" y="2400.00" type="priority"/>
    <node id="23687" x="4300.00" y="2400.00" type="priority"/>
    <node id="23693" x="4100.00" y="2700.00" type="priority"/>
    <node id="238" x="4400.00" y="5200.00" type="priority"/>
    <node id="23813" x="3600.00" y="4100.00" type="priority"/>
    <node id="23930" x="2500.00" y="5500.00" type="priority"/>
    <node id="23934" x="2200.00" y="5600.00" type="priority"/>
    <node id="23943" x="4400.00" y="8400.00" type="priority"/>
    <node id="23945" x="4300.00" y="8600.00" type="priority"/>
    <node id="23953" x="3500.00" y="7500.00" type="priority"/>
    <node id="24068" x="2700.00" y="6100.00" type="priority"/>
    <node id="24091" x="3100.00" y="6200.00" type="priority"/>
    <node id="24301" x="4600.00" y="7200.00" type="priority"/>
    <node id="24305" x="4500.00" y="7100.00" type="priority"/>
    <node id="24462" x="6200.00" y="4100.00" type="priority"/>
    <node id="24581" x="6600.00" y="4200.00" type="priority"/>
    <node id="24589" x="6500.00" y="4300.00" type="priority"/>
    <node id="24594" x="6300.00" y="4500.00" type="priority"/>
    <node id="24606" x="6200.00" y="4400.00" type="priority"/>
    <node id="2468" x="4400.00" y="4800.00" type="priority"/>
    <node id="24722" x="3400.00" y="3600.00" type="priority"/>
    <node id="24724" x="3500.00" y="3500.00" type="priority"/>
    <node id="24762" x="3700.00" y="3600.00" type="priority"/>
    <node id="24765" x="4200.00" y="3700.00" type="priority"/>
    <node id="2484" x="5100.00" y="5800.00" type="priority"/>
    <node id="2487" x="5000.00" y="4500.00" type="priority"/>
    <node id="24878" x="4100.00" y="2300.00" type="priority"/>
    <node id="24882" x="4000.00" y="2400.00" type="priority"/>
    <node id="2489" x="4900.00" y="4700.00" type="priority"/>
    <node id="24890" x="4100.00" y="2500.00" type="priority"/>
    <node id="249" x="5000.00" y="5100.00" type="priority"/>
    <node id="24909" x="3600.00" y="4000.00" type="priority"/>
    <node id="2491" x="5200.00" y="4700.00" type="priority"/>
    <node id="25028" x="2600.00" y="5500.00" type="priority"/>
    <node id="25030" x="2500.00" y="5700.00" type="priority"/>
    <node id="25035" x="2100.00" y="5600.00" type="priority"/>
    <node id="25041" x="2000.00" y="5000.00" type="priority"/>
    <node id="25054" x="3500.00" y="7700.00" type="priority"/>
    <node id="25056" x="3300.00" y="7500.00" type="priority"/>