<?xml version="1.0" encoding="UTF-8"?>

<!-- generated on 2025-10-23 18:15:42 by Eclipse SUMO netconvert Version 1.24.0
<netconvertConfiguration xmlns:xsi="http://www.w3.org/2001/XMLSchema-instance" xsi:noNamespaceSchemaLocation="http://sumo.dlr.de/xsd/netconvertConfiguration.xsd">

    <input>
        <sumo-net-file value="/nfs/work/hcsoere/fast-dta/input/random/instance_1/1_n463_t36824.net.xml"/>
    </input>

    <output>
        <plain-output-prefix value="/nfs/work/hcsoere/fast-dta/input/random/instance_1/1_n463_t36824"/>
    </output>

    <processing>
        <geometry.min-radius.fix.railways value="false"/>
        <geometry.avoid-overlap value="false"/>
        <geometry.max-grade.fix value="false"/>
        <offset.disable-normalization value="true"/>
        <lefthand value="0"/>
    </processing>

    <junctions>
        <no-turnarounds value="true"/>
        <junctions.corner-detail value="5"/>
        <junctions.limit-turn-speed value="5.50"/>
        <rectangular-lane-cut value="0"/>
    </junctions>

    <pedestrian>
        <walkingareas value="0"/>
    </pedestrian>

</netconvertConfiguration>
-->

<nodes version="1.20" xmlns:xsi="http://www.w3.org/2001/XMLSchema-instance" xsi:noNamespaceSchemaLocation="http://sumo.dlr.de/xsd/nodes_file.xsd">
    <location netOffset="2200.00,1700.00" convBoundary="0.00,0.00,3900.00,4300.00" origBoundary="-2200.00,-1700.00,1700.00,2600.00" projParameter="!"/>

    <node id="1" x="2200.00" y="1700.00" type="priority"/>
    <node id="10020" x="2400.00" y="3100.00" type="priority"/>
    <node id="101" x="2200.00" y="1400.00" type="priority"/>
    <node id="10130" x="2100.00" y="3200.00" type="priority"/>
    <node id="10249" x="700.00" y="2900.00" type="priority"/>
    <node id="10253" x="500.00" y="2800.00" type="priority"/>
    <node id="10287" x="800.00" y="3000.00" type="priority"/>
    <node id="10292" x="900.00" y="2200.00" type="priority"/>
    <node id="10308" x="3500.00" y="2200.00" type="priority"/>
    <node id="10312" x="3500.00" y="1900.00" type="priority"/>
    <node id="10320" x="3700.00" y="2100.00" type="priority"/>
    <node id="10322" x="3500.00" y="2700.00" type="priority"/>
    <node id="10324" x="3600.00" y="2600.00" type="priority"/>
    <node id="10552" x="2100.00" y="3400.00" type="priority"/>
    <node id="10554" x="2300.00" y="3500.00" type="priority"/>
    <node id="10556" x="2500.00" y="3400.00" type="priority"/>
    <node id="10666" x="1000.00" y="3000.00" type="priority"/>
    <node id="10799" x="1200.00" y="1000.00" type="priority"/>
    <node id="10806" x="600.00" y="1500.00" type="priority"/>
    <node id="10813" x="3700.00" y="1900.00" type="priority"/>
    <node id="10919" x="3300.00" y="2700.00" type="priority"/>
    <node id="10925" x="3500.00" y="2800.00" type="priority"/>
    <node id="11064" x="2900.00" y="2600.00" type="priority"/>
    <node id="11169" x="2100.00" y="3500.00" type="priority"/>
    <node id="11177" x="1800.00" y="3100.00" type="priority"/>
    <node id="11182" x="1100.00" y="3000.00" type="priority"/>
    <node id="11194" x="1000.00" y="3200.00" type="priority"/>
    <node id="11203" x="900.00" y="2000.00" type="priority"/>
    <node id="11236" x="1100.00" y="1000.00" type="priority"/>
    <node id="1124" x="2800.00" y="2100.00" type="priority"/>
    <node id="11341" x="400.00" y="1500.00" type="priority"/>
    <node id="11450" x="3900.00" y="1900.00" type="priority"/>
    <node id="11452" x="3700.00" y="1800.00" type="priority"/>
    <node id="1146" x="2200.00" y="2500.00" type="priority"/>
    <node id="11466" x="2500.00" y="500.00" type="priority"/>
    <node id="11478" x="2600.00" y="300.00" type="priority"/>
    <node id="11481" x="2800.00" y="200.00" type="priority"/>
    <node id="11488" x="1300.00" y="700.00" type="priority"/>
    <node id="11496" x="2900.00" y="2700.00" type="priority"/>
    <node id="11508" x="3000.00" y="2600.00" type="priority"/>
    <node id="116" x="2000.00" y="1500.00" type="priority"/>
    <node id="1161" x="2500.00" y="1500.00" type="priority"/>
    <node id="11616" x="2000.00" y="3500.00" type="priority"/>
    <node id="11618" x="2100.00" y="3600.00" type="priority"/>
    <node id="11630" x="1900.00" y="3200.00" type="priority"/>
    <node id="11742" x="600.00" y="2300.00" type="priority"/>
    <node id="11753" x="1100.00" y="900.00" type="priority"/>
    <node id="11757" x="900.00" y="1000.00" type="priority"/>
    <node id="1177" x="2000.00" y="2500.00" type="priority"/>
    <node id="1181" x="2300.00" y="2500.00" type="priority"/>
    <node id="1183" x="2200.00" y="2700.00" type="priority"/>
    <node id="11863" x="300.00" y="1500.00" type="priority"/>
    <node id="11865" x="400.00" y="1400.00" type="priority"/>
    <node id="11875" x="400.00" y="1600.00" type="priority"/>
    <node id="11896" x="2900.00" y="500.00" type="priority"/>
    <node id="11914" x="3100.00" y="600.00" type="priority"/>
    <node id="11931" x="2900.00" y="200.00" type="priority"/>
    <node id="11943" x="1200.00" y="700.00" type="priority"/>
    <node id="11949" x="1300.00" y="500.00" type="priority"/>
    <node id="12101" x="3100.00" y="2700.00" type="priority"/>
    <node id="12219" x="1900.00" y="3400.00" type="priority"/>
    <node id="12223" x="1000.00" y="3300.00" type="priority"/>
    <node id="12231" x="600.00" y="2200.00" type="priority"/>
    <node id="12237" x="500.00" y="2300.00" type="priority"/>
    <node id="12251" x="700.00" y="1000.00" type="priority"/>
    <node id="12260" x="300.00" y="1300.00" type="priority"/>
    <node id="12291" x="400.00" y="1200.00" type="priority"/>
    <node id="12299" x="200.00" y="1600.00" type="priority"/>
    <node id="12301" x="3200.00" y="1500.00" type="priority"/>
    <node id="12303" x="3400.00" y="1300.00" type="priority"/>
    <node id="12305" x="3500.00" y="1500.00" type="priority"/>
    <node id="12311" x="3200.00" y="2700.00" type="priority"/>
    <node id="12327" x="2900.00" y="300.00" type="priority"/>
    <node id="12339" x="2900.00" y="100.00" type="priority"/>
    <node id="12343" x="3100.00" y="200.00" type="priority"/>
    <node id="12345" x="3200.00" y="1000.00" type="priority"/>
    <node id="12349" x="3300.00" y="900.00" type="priority"/>
    <node id="12358" x="1200.00" y="500.00" type="priority"/>
    <node id="12379" x="2500.00" y="3300.00" type="priority"/>
    <node id="12386" x="1800.00" y="3400.00" type="priority"/>
    <node id="12396" x="1900.00" y="3500.00" type="priority"/>
    <node id="12501" x="1200.00" y="3300.00" type="priority"/>
    <node id="12509" x="1000.00" y="3400.00" type="priority"/>
    <node id="12511" x="900.00" y="3300.00" type="priority"/>
    <node id="12521" x="600.00" y="2100.00" type="priority"/>
    <node id="12531" x="500.00" y="1000.00" type="priority"/>
    <node id="12533" x="700.00" y="1100.00" type="priority"/>
    <node id="12551" x="700.00" y="900.00" type="priority"/>
    <node id="12556" x="200.00" y="1500.00" type="priority"/>
    <node id="12558" x="200.00" y="1800.00" type="priority"/>
    <node id="12607" x="3200.00" y="1600.00" type="priority"/>
    <node id="12727" x="2500.00" y="700.00" type="priority"/>
    <node id="12737" x="3500.00" y="900.00" type="priority"/>
    <node id="12769" x="3300.00" y="800.00" type="priority"/>
    <node id="12875" x="1000.00" y="500.00" type="priority"/>
    <node id="12883" x="1200.00" y="400.00" type="priority"/>
    <node id="12903" x="2700.00" y="3300.00" type="priority"/>
    <node id="12911" x="2400.00" y="3300.00" type="priority"/>
    <node id="13016" x="1800.00" y="3600.00" type="priority"/>
    <node id="13038" x="1600.00" y="3400.00" type="priority"/>
    <node id="13149" x="800.00" y="3300.00" type="priority"/>
    <node id="13183" x="100.00" y="1500.00" type="priority"/>
    <node id="13191" x="200.00" y="1300.00" type="priority"/>
    <node id="13193" x="100.00" y="1800.00" type="priority"/>
    <node id="13197" x="400.00" y="1800.00" type="priority"/>
    <node id="13201" x="200.00" y="2000.00" type="priority"/>
    <node id="13207" x="3300.00" y="1600.00" type="priority"/>
    <node id="13311" x="3500.00" y="1600.00" type="priority"/>
    <node id="13558" x="1700.00" y="3600.00" type="priority"/>
    <node id="13561" x="1800.00" y="3700.00" type="priority"/>
    <node id="13571" x="1100.00" y="2900.00" type="priority"/>
    <node id="13584" x="500.00" y="2100.00" type="priority"/>
    <node id="13603" x="400.00" y="1900.00" type="priority"/>
    <node id="13605" x="500.00" y="1800.00" type="priority"/>
    <node id="13609" x="400.00" y="1700.00" type="priority"/>
    <node id="13718" x="3600.00" y="1600.00" type="priority"/>
    <node id="13830" x="3600.00" y="2800.00" type="priority"/>
    <node id="1392" x="1900.00" y="1500.00" type="priority"/>
    <node id="13962" x="2000.00" y="700.00" type="priority"/>
    <node id="14094" x="1700.00" y="3800.00" type="priority"/>
    <node id="14102" x="1900.00" y="3700.00" type="priority"/>
    <node id="14106" x="1800.00" y="3800.00" type="priority"/>
    <node id="14112" x="1200.00" y="2900.00" type="priority"/>
    <node id="14221" x="600.00" y="1900.00" type="priority"/>
    <node id="14223" x="700.00" y="2100.00" type="priority"/>
    <node id="14231" x="500.00" y="900.00" type="priority"/>
    <node id="14248" x="600.00" y="1700.00" type="priority"/>
    <node id="14362" x="3600.00" y="2900.00" type="priority"/>
    <node id="14368" x="3700.00" y="2800.00" type="priority"/>
    <node id="14370" x="3500.00" y="2900.00" type="priority"/>
    <node id="14483" x="2800.00" y="100.00" type="priority"/>
    <node id="145" x="2000.00" y="1400.00" type="priority"/>
    <node id="14514" x="1700.00" y="4000.00" type="priority"/>
    <node id="14628" x="600.00" y="2900.00" type="priority"/>
    <node id="14632" x="500.00" y="2900.00" type="priority"/>
    <node id="14642" x="400.00" y="900.00" type="priority"/>
    <node id="14646" x="500.00" y="800.00" type="priority"/>
    <node id="14670" x="3400.00" y="2900.00" type="priority"/>
    <node id="14683" x="2500.00" y="300.00" type="priority"/>
    <node id="14688" x="2800.00" y="0.00" type="priority"/>
    <node id="14702" x="2700.00" y="100.00" type="priority"/>
    <node id="14813" x="1000.00" y="400.00" type="priority"/>
    <node id="14823" x="1900.00" y="4000.00" type="priority"/>
    <node id="14825" x="1700.00" y="4200.00" type="priority"/>
    <node id="14829" x="1500.00" y="4000.00" type="priority"/>
    <node id="14842" x="1200.00" y="2800.00" type="priority"/>
    <node id="14846" x="1200.00" y="3100.00" type="priority"/>
    <node id="14957" x="600.00" y="3100.00" type="priority"/>
    <node id="15065" x="200.00" y="900.00" type="priority"/>
    <node id="15095" x="400.00" y="700.00" type="priority"/>
    <node id="1511" x="2600.00" y="2100.00" type="priority"/>
    <node id="15208" x="700.00" y="800.00" type="priority"/>
    <node id="15224" x="3300.00" y="2800.00" type="priority"/>
    <node id="15230" x="3700.00" y="2600.00" type="priority"/>
    <node id="15236" x="3600.00" y="2500.00" type="priority"/>
    <node id="1524" x="2300.00" y="1800.00" type="priority"/>
    <node id="15241" x="2400.00" y="300.00" type="priority"/>
    <node id="15255" x="2500.00" y="200.00" type="priority"/>
    <node id="1537" x="1800.00" y="1500.00" type="priority"/>
    <node id="15372" x="1000.00" y="700.00" type="priority"/>
    <node id="15374" x="900.00" y="400.00" type="priority"/>
    <node id="154" x="2000.00" y="1200.00" type="priority"/>
    <node id="15484" x="2000.00" y="4000.00" type="priority"/>
    <node id="15488" x="1900.00" y="3900.00" type="priority"/>
    <node id="15494" x="1700.00" y="4300.00" type="priority"/>
    <node id="15498" x="1600.00" y="4200.00" type="priority"/>
    <node id="15501" x="1400.00" y="4000.00" type="priority"/>
    <node id="15616" x="0.00" y="900.00" type="priority"/>
    <node id="15618" x="200.00" y="800.00" type="priority"/>
    <node id="15620" x="200.00" y="1000.00" type="priority"/>
    <node id="15625" x="700.00" y="700.00" type="priority"/>
    <node id="15629" x="600.00" y="800.00" type="priority"/>
    <node id="15633" x="900.00" y="800.00" type="priority"/>
    <node id="15659" x="3300.00" y="2600.00" type="priority"/>
    <node id="15677" x="3700.00" y="2400.00" type="priority"/>
    <node id="15680" x="3600.00" y="2300.00" type="priority"/>
    <node id="15694" x="2900.00" y="400.00" type="priority"/>
    <node id="15700" x="2300.00" y="200.00" type="priority"/>
    <node id="1571" x="1900.00" y="1700.00" type="priority"/>
    <node id="15716" x="2500.00" y="100.00" type="priority"/>
    <node id="15724" x="1500.00" y="500.00" type="priority"/>
    <node id="15730" x="1600.00" y="700.00" type="priority"/>
    <node id="15834" x="800.00" y="400.00" type="priority"/>
    <node id="15836" x="900.00" y="200.00" type="priority"/>
    <node id="15846" x="900.00" y="500.00" type="dead_end"/>
    <node id="15856" x="2100.00" y="4000.00" type="dead_end"/>
    <node id="15861" x="1400.00" y="3900.00" type="priority"/>
    <node id="15863" x="1300.00" y="4000.00" type="priority"/>
    <node id="15871" x="1400.00" y="4100.00" type="priority"/>
    <node id="15997" x="3500.00" y="1300.00" type="priority"/>
    <node id="16027" x="3800.00" y="2400.00" type="priority"/>
    <node id="16033" x="3000.00" y="400.00" type="priority"/>
    <node id="16139" x="2500.00" y="0.00" type="priority"/>
    <node id="16258" x="2900.00" y="3100.00" type="priority"/>
    <node id="16262" x="3100.00" y="3000.00" type="priority"/>
    <node id="16275" x="1400.00" y="4200.00" type="priority"/>
    <node id="16279" x="1400.00" y="3700.00" type="priority"/>
    <node id="16298" x="600.00" y="1100.00" type="priority"/>
    <node id="16308" x="700.00" y="1200.00" type="priority"/>
    <node id="16416" x="3500.00" y="1200.00" type="priority"/>
    <node id="16418" x="3700.00" y="1300.00" type="priority"/>
    <node id="16428" x="3800.00" y="2300.00" type="priority"/>
    <node id="18" x="2200.00" y="1800.00" type="priority"/>
    <node id="180" x="1900.00" y="1400.00" type="priority"/>
    <node id="1894" x="2300.00" y="1100.00" type="priority"/>
    <node id="1921" x="2500.00" y="1100.00" type="priority"/>
    <node id="1923" x="2300.00" y="1300.00" type="priority"/>
    <node id="1925" x="2300.00" y="1000.00" type="priority"/>
    <node id="196" x="2000.00" y="1100.00" type="priority"/>
    <node id="2" x="2400.00" y="1700.00" type="priority"/>
    <node id="2051" x="2500.00" y="2500.00" type="priority"/>
    <node id="206" x="2200.00" y="1100.00" type="priority"/>
    <node id="2061" x="2400.00" y="2400.00" type="priority"/>
    <node id="2090" x="2500.00" y="1300.00" type="priority"/>
    <node id="212" x="2000.00" y="1000.00" type="priority"/>
    <node id="2122" x="2200.00" y="1300.00" type="priority"/>
    <node id="2248" x="2500.00" y="2600.00" type="priority"/>
    <node id="226" x="1800.00" y="1100.00" type="priority"/>
    <node id="2276" x="2700.00" y="2400.00" type="priority"/>
    <node id="2527" x="2600.00" y="2600.00" type="priority"/>
    <node id="2553" x="1700.00" y="1100.00" type="priority"/>
    <node id="2664" x="2600.00" y="2700.00" type="priority"/>
    <node id="2676" x="2800.00" y="2600.00" type="priority"/>
    <node id="2688" x="2600.00" y="1100.00" type="priority"/>
    <node id="2693" x="1900.00" y="1000.00" type="priority"/>
    <node id="270" x="2000.00" y="900.00" type="priority"/>
    <node id="2710" x="1700.00" y="2000.00" type="priority"/>
    <node id="280" x="2000.00" y="2000.00" type="priority"/>
    <node id="2818" x="2800.00" y="1100.00" type="priority"/>
    <node id="2824" x="2600.00" y="900.00" type="priority"/>
    <node id="2840" x="2300.00" y="900.00" type="priority"/>
    <node id="2844" x="2100.00" y="800.00" type="priority"/>
    <node id="2861" x="1700.00" y="2200.00" type="priority"/>
    <node id="2863" x="1700.00" y="1900.00" type="priority"/>
    <node id="2867" x="1600.00" y="2000.00" type="priority"/>
    <node id="2874" x="2800.00" y="1200.00" type="priority"/>
    <node id="2878" x="2900.00" y="1100.00" type="priority"/>
    <node id="288" x="2100.00" y="1800.00" type="priority"/>
    <node id="2880" x="2700.00" y="900.00" type="priority"/>
    <node id="2882" x="2600.00" y="800.00" type="priority"/>
    <node id="2890" x="2500.00" y="900.00" type="priority"/>
    <node id="2915" x="1800.00" y="1900.00" type="priority"/>
    <node id="2917" x="1700.00" y="1700.00" type="priority"/>
    <node id="2925" x="1500.00" y="1900.00" type="priority"/>
    <node id="2928" x="2900.00" y="1800.00" type="priority"/>
    <node id="2937" x="2700.00" y="1200.00" type="priority"/>
    <node id="294" x="2100.00" y="900.00" type="priority"/>
    <node id="2943" x="3000.00" y="1100.00" type="priority"/>
    <node id="2986" x="2900.00" y="900.00" type="priority"/>
    <node id="306" x="2000.00" y="800.00" type="priority"/>
    <node id="3093" x="2200.00" y="800.00" type="priority"/>
    <node id="314" x="2000.00" y="1600.00" type="priority"/>
    <node id="3201" x="1800.00" y="1600.00" type="priority"/>
    <node id="3320" x="1700.00" y="2400.00" type="priority"/>
    <node id="3330" x="1500.00" y="2200.00" type="priority"/>
    <node id="3337" x="1500.00" y="2100.00" type="priority"/>
    <node id="3345" x="1400.00" y="1900.00" type="priority"/>
    <node id="337" x="2000.00" y="2200.00" type="priority"/>
    <node id="339" x="1800.00" y="2000.00" type="priority"/>
    <node id="3455" x="2700.00" y="1400.00" type="priority"/>
    <node id="3459" x="2600.00" y="1200.00" type="priority"/>
    <node id="355" x="2000.00" y="1900.00" type="priority"/>
    <node id="3582" x="2900.00" y="800.00" type="priority"/>
    <node id="3604" x="3100.00" y="900.00" type="priority"/>
    <node id="369" x="1900.00" y="2200.00" type="priority"/>
    <node id="3712" x="2200.00" y="700.00" type="priority"/>
    <node id="3714" x="2400.00" y="800.00" type="priority"/>
    <node id="373" x="2200.00" y="2200.00" type="priority"/>
    <node id="3834" x="1600.00" y="1600.00" type="priority"/>
    <node id="394" x="1900.00" y="2300.00" type="priority"/>
    <node id="3972" x="1700.00" y="2600.00" type="priority"/>
    <node id="3980" x="1400.00" y="2200.00" type="priority"/>
    <node id="3982" x="1500.00" y="2300.00" type="priority"/>
    <node id="4" x="2200.00" y="1500.00" type="priority"/>
    <node id="403" x="2200.00" y="2300.00" type="priority"/>
    <node id="4088" x="1400.00" y="1700.00" type="priority"/>
    <node id="4094" x="1200.00" y="1900.00" type="priority"/>
    <node id="4096" x="2900.00" y="1600.00" type="priority"/>
    <node id="4104" x="3100.00" y="1800.00" type="priority"/>
    <node id="4134" x="3000.00" y="1200.00" type="priority"/>
    <node id="4136" x="2800.00" y="800.00" type="priority"/>
    <node id="4168" x="2500.00" y="1000.00" type="priority"/>
    <node id="425" x="2400.00" y="2200.00" type="priority"/>
    <node id="4274" x="1800.00" y="800.00" type="priority"/>
    <node id="4290" x="1800.00" y="2600.00" type="priority"/>
    <node id="4292" x="1700.00" y="2800.00" type="priority"/>
    <node id="4294" x="1600.00" y="2600.00" type="priority"/>
    <node id="4297" x="1400.00" y="2400.00" type="priority"/>
    <node id="4312" x="1600.00" y="2300.00" type="priority"/>
    <node id="4324" x="1500.00" y="2500.00" type="priority"/>
    <node id="4328" x="1800.00" y="1800.00" type="priority"/>
    <node id="437" x="2500.00" y="2000.00" type="priority"/>
    <node id="4438" x="1300.00" y="2100.00" type="priority"/>
    <node id="453" x="2000.00" y="2300.00" type="priority"/>
    <node id="4547" x="1200.00" y="1800.00" type="priority"/>
    <node id="455" x="1900.00" y="2500.00" type="priority"/>
    <node id="4555" x="3000.00" y="1600.00" type="priority"/>
    <node id="4575" x="2900.00" y="1500.00" type="priority"/>
    <node id="465" x="1800.00" y="2300.00" type="priority"/>
    <node id="4689" x="2900.00" y="1400.00" type="priority"/>
    <node id="4694" x="3100.00" y="1200.00" type="priority"/>
    <node id="4904" x="1700.00" y="800.00" type="priority"/>
    <node id="4910" x="1800.00" y="700.00" type="priority"/>
    <node id="4931" x="2200.00" y="2800.00" type="priority"/>
    <node id="4943" x="1200.00" y="2400.00" type="priority"/>
    <node id="5015" x="1400.00" y="2600.00" type="priority"/>
    <node id="5031" x="1600.00" y="2400.00" type="priority"/>
    <node id="51" x="2200.00" y="2000.00" type="priority"/>
    <node id="5140" x="1100.00" y="2100.00" type="priority"/>
    <node id="5142" x="1300.00" y="2200.00" type="priority"/>
    <node id="5249" x="1000.00" y="1800.00" type="priority"/>
    <node id="5257" x="1200.00" y="1600.00" type="priority"/>
    <node id="5266" x="3200.00" y="1800.00" type="priority"/>
    <node id="5328" x="3100.00" y="1400.00" type="priority"/>
    <node id="5436" x="3200.00" y="1200.00" type="priority"/>
    <node id="5545" x="1700.00" y="1000.00" type="priority"/>
    <node id="5547" x="1500.00" y="800.00" type="priority"/>
    <node id="5561" x="2300.00" y="2700.00" type="priority"/>
    <node id="5570" x="2100.00" y="2800.00" type="priority"/>
    <node id="5579" x="1200.00" y="2500.00" type="priority"/>
    <node id="5583" x="1100.00" y="2400.00" type="priority"/>
    <node id="5590" x="1400.00" y="2700.00" type="priority"/>
    <node id="5700" x="800.00" y="1800.00" type="priority"/>
    <node id="5704" x="1000.00" y="1900.00" type="priority"/>
    <node id="5706" x="1000.00" y="1600.00" type="priority"/>
    <node id="5708" x="3400.00" y="1800.00" type="priority"/>
    <node id="5710" x="3200.00" y="2000.00" type="priority"/>
    <node id="5718" x="2800.00" y="700.00" type="priority"/>
    <node id="573" x="2500.00" y="1900.00" type="priority"/>
    <node id="579" x="2600.00" y="2000.00" type="priority"/>
    <node id="5827" x="1500.00" y="700.00" type="priority"/>
    <node id="5829" x="1500.00" y="900.00" type="priority"/>
    <node id="5833" x="1300.00" y="800.00" type="priority"/>
    <node id="5844" x="2800.00" y="2500.00" type="priority"/>
    <node id="5846" x="2800.00" y="2800.00" type="priority"/>
    <node id="5853" x="2100.00" y="2900.00" type="priority"/>
    <node id="5857" x="2100.00" y="2600.00" type="priority"/>
    <node id="5886" x="1000.00" y="2500.00" type="priority"/>
    <node id="5891" x="1100.00" y="2300.00" type="priority"/>
    <node id="5915" x="900.00" y="2400.00" type="priority"/>
    <node id="6" x="2100.00" y="1700.00" type="priority"/>
    <node id="6126" x="1000.00" y="1500.00" type="priority"/>
    <node id="6130" x="900.00" y="1600.00" type="priority"/>
    <node id="6132" x="3400.00" y="1700.00" type="priority"/>
    <node id="6136" x="3400.00" y="1900.00" type="priority"/>
    <node id="6139" x="3200.00" y="2100.00" type="priority"/>
    <node id="6149" x="3100.00" y="2000.00" type="priority"/>
    <node id="6261" x="2800.00" y="600.00" type="priority"/>
    <node id="6279" x="2700.00" y="2700.00" type="priority"/>
    <node id="6294" x="2800.00" y="2400.00" type="priority"/>
    <node id="6298" x="3000.00" y="2500.00" type="priority"/>
    <node id="63" x="2100.00" y="2000.00" type="priority"/>
    <node id="6410" x="2100.00" y="3000.00" type="priority"/>
    <node id="6428" x="2200.00" y="2900.00" type="priority"/>
    <node id="6442" x="1900.00" y="2900.00" type="priority"/>
    <node id="6444" x="1900.00" y="2600.00" type="priority"/>
    <node id="6561" x="1000.00" y="2700.00" type="priority"/>
    <node id="6565" x="1600.00" y="2700.00" type="priority"/>
    <node id="6567" x="1400.00" y="2800.00" type="priority"/>
    <node id="6569" x="1300.00" y="2700.00" type="priority"/>
    <node id="6583" x="1200.00" y="1500.00" type="priority"/>
    <node id="6591" x="1000.00" y="1300.00" type="priority"/>
    <node id="6600" x="3500.00" y="1700.00" type="priority"/>
    <node id="6616" x="3400.00" y="1500.00" type="priority"/>
    <node id="6619" x="3100.00" y="2100.00" type="priority"/>
    <node id="6625" x="3400.00" y="2100.00" type="priority"/>
    <node id="6628" x="3000.00" y="2000.00" type="priority"/>
    <node id="6664" x="2600.00" y="1800.00" type="priority"/>
    <node id="6674" x="3200.00" y="900.00" type="priority"/>
    <node id="6680" x="1500.00" y="1100.00" type="priority"/>
    <node id="6698" x="2300.00" y="3000.00" type="priority"/>
    <node id="6702" x="2400.00" y="2900.00" type="priority"/>
    <node id="6708" x="1900.00" y="3000.00" type="priority"/>
    <node id="6734" x="1900.00" y="2700.00" type="priority"/>
    <node id="6841" x="1000.00" y="2900.00" type="priority"/>
    <node id="6845" x="1100.00" y="2700.00" type="priority"/>
    <node id="6861" x="800.00" y="2700.00" type="priority"/>
    <node id="6865" x="1600.00" y="2900.00" type="priority"/>
    <node id="6884" x="1300.00" y="2900.00" type="priority"/>
    <node id="6895" x="1400.00" y="1500.00" type="priority"/>
    <node id="69" x="2300.00" y="2000.00" type="priority"/>
    <node id="6941" x="1200.00" y="1300.00" type="priority"/>
    <node id="6944" x="800.00" y="1300.00" type="priority"/>
    <node id="6950" x="1000.00" y="1100.00" type="priority"/>
    <node id="6960" x="3500.00" y="2100.00" type="priority"/>
    <node id="6980" x="3400.00" y="2300.00" type="priority"/>
    <node id="6984" x="3000.00" y="2200.00" type="priority"/>
    <node id="699" x="2200.00" y="2400.00" type="priority"/>
    <node id="6996" x="2700.00" y="1800.00" type="priority"/>
    <node id="704" x="2300.00" y="2300.00" type="priority"/>
    <node id="7118" x="3000.00" y="800.00" type="priority"/>
    <node id="7125" x="1400.00" y="1100.00" type="priority"/>
    <node id="7131" x="1500.00" y="1200.00" type="priority"/>
    <node id="7150" x="2500.00" y="2900.00" type="priority"/>
    <node id="7160" x="1900.00" y="3100.00" type="priority"/>
    <node id="7182" x="1700.00" y="3000.00" type="priority"/>
    <node id="727" x="2700.00" y="1900.00" type="priority"/>
    <node id="7290" x="600.00" y="2700.00" type="priority"/>
    <node id="7292" x="800.00" y="2500.00" type="priority"/>
    <node id="7294" x="800.00" y="2800.00" type="priority"/>
    <node id="7319" x="1600.00" y="3100.00" type="priority"/>
    <node id="7327" x="1300.00" y="3000.00" type="priority"/>
    <node id="7343" x="1500.00" y="1700.00" type="priority"/>
    <node id="7461" x="1400.00" y="1300.00" type="priority"/>
    <node id="7463" x="1200.00" y="1200.00" type="priority"/>
    <node id="7468" x="800.00" y="1100.00" type="priority"/>
    <node id="7470" x="800.00" y="1400.00" type="priority"/>
    <node id="7492" x="700.00" y="1300.00" type="priority"/>
    <node id="7602" x="3000.00" y="2300.00" type="priority"/>
    <node id="7610" x="3100.00" y="2200.00" type="priority"/>
    <node id="7621" x="2900.00" y="600.00" type="priority"/>
    <node id="7625" x="2700.00" y="600.00" type="priority"/>
    <node id="7633" x="2800.00" y="400.00" type="priority"/>
    <node id="7752" x="1700.00" y="1500.00" type="priority"/>
    <node id="7764" x="2500.00" y="3000.00" type="priority"/>
    <node id="7875" x="700.00" y="2500.00" type="priority"/>
    <node id="7965" x="800.00" y="2300.00" type="priority"/>
    <node id="8077" x="1400.00" y="3100.00" type="priority"/>
    <node id="8083" x="1600.00" y="3200.00" type="priority"/>
    <node id="8189" x="1500.00" y="1800.00" type="priority"/>
    <node id="8301" x="800.00" y="1500.00" type="priority"/>
    <node id="8320" x="3200.00" y="2200.00" type="priority"/>
    <node id="8322" x="3100.00" y="2400.00" type="priority"/>
    <node id="836" x="2400.00" y="1600.00" type="priority"/>
    <node id="845" x="1900.00" y="1300.00" type="priority"/>
    <node id="8538" x="2300.00" y="700.00" type="priority"/>
    <node id="855" x="2500.00" y="2300.00" type="priority"/>
    <node id="860" x="2800.00" y="1900.00" type="priority"/>
    <node id="863" x="2600.00" y="1600.00" type="priority"/>
    <node id="865" x="2400.00" y="1500.00" type="priority"/>
    <node id="8657" x="2900.00" y="2800.00" type="priority"/>
    <node id="8659" x="2800.00" y="2900.00" type="priority"/>
    <node id="8664" x="2700.00" y="3000.00" type="priority"/>
    <node id="8672" x="2500.00" y="3200.00" type="priority"/>
    <node id="8692" x="1500.00" y="3000.00" type="priority"/>
    <node id="8811" x="3400.00" y="2400.00" type="priority"/>
    <node id="8854" x="2600.00" y="1300.00" type="priority"/>
    <node id="8971" x="2300.00" y="500.00" type="priority"/>
    <node id="9090" x="1700.00" y="1400.00" type="priority"/>
    <node id="9201" x="2700.00" y="3100.00" type="priority"/>
    <node id="9209" x="2900.00" y="3000.00" type="priority"/>
    <node id="9214" x="2300.00" y="3200.00" type="priority"/>
    <node id="9340" x="3500.00" y="2400.00" type="priority"/>
    <node id="9342" x="3300.00" y="2400.00" type="priority"/>
    <node id="9348" x="3400.00" y="2500.00" type="priority"/>
    <node id="9460" x="2700.00" y="500.00" type="priority"/>
    <node id="9477" x="1700.00" y="1300.00" type="priority"/>
    <node id="9487" x="1800.00" y="1400.00" type="priority"/>
    <node id="9494" x="2300.00" y="3400.00" type="priority"/>
    <node id="9496" x="2300.00" y="3100.00" type="priority"/>
    <node id="9500" x="2200.00" y="3200.00" type="priority"/>
    <node id="9502" x="2100.00" y="3100.00" type="priority"/>
    <node id="9511" x="700.00" y="2800.00" type="priority"/>
    <node id="9518" x="900.00" y="2300.00" type="priority"/>
    <node id="9632" x="3500.00" y="2600.00" type="priority"/>
    <node id="9650" x="2700.00" y="300.00" type="priority"/>
    <node id="9654" x="2600.00" y="500.00" type="priority"/>
    <node id="97" x="2100.00" y="1500.00" type="priority"/>
    <node id="984" x="2500.00" y="2400.00" type="priority"/>
    <node id="986" x="2700.00" y="2300.00" type="priority"/>
    <node id="990" x="2900.00" y="1900.00" type="priority"/>