<?xml version="1.0" encoding="UTF-8"?>

<!-- Merged from multiple trip files by merge_trips.py -->

<routes xmlns:xsi="http://www.w3.org/2001/XMLSchema-instance"
    xsi:noNamespaceSchemaLocation="http://sumo.dlr.de/xsd/routes_file.xsd">
    <trip id="33" depart="1018.05" from="-39910" to="-15410" />
    <trip id="34" depart="1048.90" from="-51772" to="-55859" />
    <trip id="35" depart="1079.75" from="-37385" to="75416" />
    <trip id="36" depart="1110.60" from="56512" to="-64325" />
    <trip id="37" depart="1141.45" from="20479" to="10791" />
    <trip id="38" depart="1172.30" from="63141" to="1900" />
    <trip id="39" depart="1203.15" from="-45054" to="-51771" />
    <trip id="40" depart="1234.00" from="-76254" to="-54603" />
    <trip id="41" depart="1264.85" from="-9272" to="72705" />
    <trip id="42" depart="1295.70" from="-63275" to="-471" />
    <trip id="43" depart="1326.55" from="9857" to="25734" />
    <trip id="44" depart="1357.40" from="-21949" to="-18093" />
    <trip id="45" depart="1388.25" from="-239" to="4072" />
    <trip id="46" depart="1419.10" from="42134" to="1390" />
    <trip id="47" depart="1449.95" from="-18376" to="-9123" />
    <trip id="48" depart="1480.80" from="9701" to="28756" />
    <trip id="49" depart="1511.65" from="73289" to="68950" />
    <trip id="50" depart="1542.50" from="-11453" to="5300" />
    <trip id="51" depart="1573.35" from="24607" to="2940" />
    <trip id="52" depart="1604.20" from="-4547" to="42240" />
    <trip id="53" depart="1635.05" from="-24463" to="15585" />
    <trip id="54" depart="1665.90" from="-68547" to="75875" />
    <trip id="55" depart="1696.75" from="56390" to="-54756" />
    <trip id="56" depart="1727.60" from="-73405" to="-39659" />
    <trip id="57" depart="1758.45" from="62654" to="70279" />
    <trip id="58" depart="1789.30" from="-493" to="42134" />
    <trip id="59" depart="1820.15" from="12384" to="-35165" />
    <trip id="60" depart="1851.00" from="37129" to="29664" />
    <trip id="61" depart="1881.85" from="39987" to="28925" />
    <trip id="62" depart="1912.70" from="-10245" to="-66062" />
    <trip id="63" depart="1943.55" from="-12224" to="74861" />
    <trip id="64" depart="1974.40" from="56762" to="66076" />
    <trip id="65" depart="2005.25" from="-51046" to="-20301" />
    <trip id="66" depart="2036.10" from="56733" to="75432" />
    <trip id="67" depart="2066.95" from="-21170" to="22613" />
    <trip id="68" depart="2097.80" from="-18915" to="58106" />
    <trip id="69" depart="2128.65" from="37690" to="-30861" />
    <trip id="70" depart="2159.50" from="-71350" to="30734" />
    <trip id="71" depart="2190.35" from="-45059" to="70414" />
    <trip id="72" depart="2221.20" from="-6572" to="-45712" />
    <trip id="73" depart="2252.05" from="-75426" to="54398" />
    <trip id="74" depart="2282.90" from="-36008" to="-63647" />
    <trip id="75" depart="2313.75" from="9363" to="4304" />
    <trip id="76" depart="2344.60" from="-67049" to="27211" />
    <trip id="77" depart="2375.45" from="-25719" to="-47812" />
    <trip id="78" depart="2406.30" from="-55144" to="35570" />
    <trip id="79" depart="2437.15" from="-39981" to="-4725" />
    <trip id="80" depart="2468.00" from="-1914" to="41576" />


</routes>