<?xml version="1.0" encoding="UTF-8"?>

<!-- generated on 2025-10-03 15:08:20 by Eclipse SUMO netconvert Version 1.23.1
<netconvertConfiguration xmlns:xsi="http://www.w3.org/2001/XMLSchema-instance" xsi:noNamespaceSchemaLocation="http://sumo.dlr.de/xsd/netconvertConfiguration.xsd">

    <input>
        <sumo-net-file value="random.net.xml"/>
    </input>

    <output>
        <plain-output-prefix value="random"/>
    </output>

    <processing>
        <geometry.min-radius.fix.railways value="false"/>
        <geometry.avoid-overlap value="false"/>
        <geometry.max-grade.fix value="false"/>
        <offset.disable-normalization value="true"/>
        <lefthand value="0"/>
    </processing>

    <junctions>
        <no-turnarounds value="true"/>
        <junctions.corner-detail value="5"/>
        <junctions.limit-turn-speed value="5.50"/>
        <rectangular-lane-cut value="0"/>
    </junctions>

    <pedestrian>
        <walkingareas value="0"/>
    </pedestrian>

</netconvertConfiguration>
-->

<edges version="1.20" xmlns:xsi="http://www.w3.org/2001/XMLSchema-instance" xsi:noNamespaceSchemaLocation="http://sumo.dlr.de/xsd/edges_file.xsd">
    <edge id="-10003" from="10002" to="9366" priority="-1" numLanes="2" speed="13.89"/>
    <edge id="-10006" from="6787" to="9473" priority="-1" numLanes="1" speed="13.89"/>
    <edge id="-10235" from="10234" to="9710" priority="-1" numLanes="1" speed="13.89"/>
    <edge id="-10236" from="9725" to="9712" priority="-1" numLanes="2" speed="13.89"/>
    <edge id="-10245" from="9844" to="9137" priority="-1" numLanes="2" speed="13.89"/>
    <edge id="-10272" from="10271" to="9844" priority="-1" numLanes="2" speed="13.89"/>
    <edge id="-10274" from="9856" to="7490" priority="-1" numLanes="1" speed="13.89"/>
    <edge id="-10276" from="6947" to="9856" priority="-1" numLanes="2" speed="13.89"/>
    <edge id="-10284" from="10283" to="9860" priority="-1" numLanes="1" speed="13.89"/>
    <edge id="-10290" from="10289" to="9860" priority="-1" numLanes="1" speed="13.89"/>
    <edge id="-10297" from="8131" to="9880" priority="-1" numLanes="2" speed="13.89"/>
    <edge id="-10303" from="10302" to="9880" priority="-1" numLanes="2" speed="13.89"/>
    <edge id="-10337" from="10336" to="9880" priority="-1" numLanes="1" speed="13.89"/>
    <edge id="-10349" from="10348" to="6443" priority="-1" numLanes="2" speed="13.89"/>
    <edge id="-10351" from="10350" to="6443" priority="-1" numLanes="1" speed="13.89"/>
    <edge id="-10354" from="10350" to="9906" priority="-1" numLanes="2" speed="13.89"/>
    <edge id="-10360" from="9989" to="9914" priority="-1" numLanes="2" speed="13.89"/>
    <edge id="-10366" from="10365" to="9914" priority="-1" numLanes="2" speed="13.89"/>
    <edge id="-10374" from="10373" to="9914" priority="-1" numLanes="1" speed="13.89"/>
    <edge id="-10375" from="10365" to="9946" priority="-1" numLanes="2" speed="13.89"/>
    <edge id="-1038" from="1037" to="883" priority="-1" numLanes="1" speed="13.89"/>
    <edge id="-10381" from="10380" to="9946" priority="-1" numLanes="2" speed="13.89"/>
    <edge id="-10382" from="9725" to="9949" priority="-1" numLanes="2" speed="13.89"/>
    <edge id="-10384" from="10383" to="9949" priority="-1" numLanes="1" speed="13.89"/>
    <edge id="-10397" from="10373" to="9989" priority="-1" numLanes="2" speed="13.89"/>
    <edge id="-10398" from="10383" to="9989" priority="-1" numLanes="2" speed="13.89"/>
    <edge id="-10403" from="9998" to="9364" priority="-1" numLanes="1" speed="13.89"/>
    <edge id="-10405" from="10002" to="9996" priority="-1" numLanes="1" speed="13.89"/>
    <edge id="-10409" from="10408" to="9996" priority="-1" numLanes="1" speed="13.89"/>
    <edge id="-10411" from="10408" to="10002" priority="-1" numLanes="2" speed="13.89"/>
    <edge id="-10417" from="10416" to="7640" priority="-1" numLanes="2" speed="13.89"/>
    <edge id="-1043" from="1042" to="82" priority="-1" numLanes="1" speed="13.89"/>
    <edge id="-10525" from="4727" to="8483" priority="-1" numLanes="2" speed="13.89"/>
    <edge id="-1059" from="1042" to="74" priority="-1" numLanes="1" speed="13.89"/>
    <edge id="-1061" from="1060" to="1037" priority="-1" numLanes="1" speed="13.89"/>
    <edge id="-1066" from="236" to="1042" priority="-1" numLanes="2" speed="13.89"/>
    <edge id="-10742" from="10741" to="10234" priority="-1" numLanes="1" speed="13.89"/>
    <edge id="-10744" from="10743" to="10234" priority="-1" numLanes="2" speed="13.89"/>
    <edge id="-1075" from="1060" to="450" priority="-1" numLanes="1" speed="13.89"/>
    <edge id="-10757" from="10756" to="8135" priority="-1" numLanes="2" speed="13.89"/>
    <edge id="-10791" from="10790" to="8135" priority="-1" numLanes="1" speed="13.89"/>
    <edge id="-10894" from="9137" to="10271" priority="-1" numLanes="1" speed="13.89"/>
    <edge id="-10898" from="10897" to="10271" priority="-1" numLanes="1" speed="13.89"/>
    <edge id="-1093" from="515" to="442" priority="-1" numLanes="2" speed="13.89"/>
    <edge id="-11002" from="10289" to="10283" priority="-1" numLanes="2" speed="13.89"/>
    <edge id="-11003" from="9263" to="10283" priority="-1" numLanes="1" speed="13.89"/>
    <edge id="-11004" from="9271" to="10283" priority="-1" numLanes="1" speed="13.89"/>
    <edge id="-11016" from="11015" to="10289" priority="-1" numLanes="1" speed="13.89"/>
    <edge id="-11088" from="11087" to="10289" priority="-1" numLanes="2" speed="13.89"/>
    <edge id="-1109" from="1108" to="442" priority="-1" numLanes="2" speed="13.89"/>
    <edge id="-11094" from="10336" to="10302" priority="-1" numLanes="1" speed="13.89"/>
    <edge id="-11096" from="11095" to="10302" priority="-1" numLanes="1" speed="13.89"/>
    <edge id="-1110" from="1060" to="511" priority="-1" numLanes="2" speed="13.89"/>
    <edge id="-11102" from="11101" to="10336" priority="-1" numLanes="2" speed="13.89"/>
    <edge id="-11112" from="11111" to="10336" priority="-1" numLanes="2" speed="13.89"/>
    <edge id="-11122" from="9311" to="10350" priority="-1" numLanes="1" speed="13.89"/>
    <edge id="-11128" from="11127" to="8085" priority="-1" numLanes="1" speed="13.89"/>
    <edge id="-11131" from="11130" to="7095" priority="-1" numLanes="1" speed="13.89"/>
    <edge id="-11132" from="11127" to="7095" priority="-1" numLanes="2" speed="13.89"/>
    <edge id="-11146" from="11145" to="10365" priority="-1" numLanes="2" speed="13.89"/>
    <edge id="-11148" from="11147" to="10373" priority="-1" numLanes="1" speed="13.89"/>
    <edge id="-11150" from="11149" to="10373" priority="-1" numLanes="1" speed="13.89"/>
    <edge id="-11151" from="11145" to="10380" priority="-1" numLanes="1" speed="13.89"/>
    <edge id="-11157" from="11156" to="10380" priority="-1" numLanes="2" speed="13.89"/>
    <edge id="-1121" from="1120" to="1037" priority="-1" numLanes="2" speed="13.89"/>
    <edge id="-11267" from="11266" to="10395" priority="-1" numLanes="1" speed="13.89"/>
    <edge id="-11289" from="11288" to="10395" priority="-1" numLanes="1" speed="13.89"/>
    <edge id="-1130" from="1129" to="66" priority="-1" numLanes="1" speed="13.89"/>
    <edge id="-11303" from="11302" to="10408" priority="-1" numLanes="1" speed="13.89"/>
    <edge id="-11316" from="11315" to="10416" priority="-1" numLanes="1" speed="13.89"/>
    <edge id="-1134" from="1120" to="511" priority="-1" numLanes="1" speed="13.89"/>
    <edge id="-11422" from="11421" to="6787" priority="-1" numLanes="2" speed="13.89"/>
    <edge id="-11440" from="11439" to="9090" priority="-1" numLanes="1" speed="13.89"/>
    <edge id="-11444" from="10743" to="10741" priority="-1" numLanes="1" speed="13.89"/>
    <edge id="-11453" from="11452" to="10741" priority="-1" numLanes="2" speed="13.89"/>
    <edge id="-11463" from="11462" to="10743" priority="-1" numLanes="2" speed="13.89"/>
    <edge id="-11464" from="11147" to="10743" priority="-1" numLanes="1" speed="13.89"/>
    <edge id="-1147" from="1146" to="1120" priority="-1" numLanes="2" speed="13.89"/>
    <edge id="-11471" from="11470" to="10756" priority="-1" numLanes="1" speed="13.89"/>
    <edge id="-11473" from="11472" to="10756" priority="-1" numLanes="1" speed="13.89"/>
    <edge id="-11476" from="11475" to="10897" priority="-1" numLanes="2" speed="13.89"/>
    <edge id="-11488" from="11487" to="10897" priority="-1" numLanes="2" speed="13.89"/>
    <edge id="-1149" from="1148" to="1120" priority="-1" numLanes="2" speed="13.89"/>
    <edge id="-11498" from="11101" to="11095" priority="-1" numLanes="2" speed="13.89"/>
    <edge id="-11528" from="11527" to="11101" priority="-1" numLanes="2" speed="13.89"/>
    <edge id="-11542" from="11541" to="11101" priority="-1" numLanes="2" speed="13.89"/>
    <edge id="-11543" from="11527" to="11111" priority="-1" numLanes="1" speed="13.89"/>
    <edge id="-11547" from="11546" to="11111" priority="-1" numLanes="1" speed="13.89"/>
    <edge id="-1155" from="1154" to="30" priority="-1" numLanes="1" speed="13.89"/>
    <edge id="-11556" from="11555" to="5184" priority="-1" numLanes="1" speed="13.89"/>
    <edge id="-1156" from="1154" to="23" priority="-1" numLanes="1" speed="13.89"/>
    <edge id="-11563" from="11562" to="11127" priority="-1" numLanes="1" speed="13.89"/>
    <edge id="-11567" from="11566" to="11127" priority="-1" numLanes="2" speed="13.89"/>
    <edge id="-11568" from="1610" to="8085" priority="-1" numLanes="2" speed="13.89"/>
    <edge id="-11569" from="11562" to="8085" priority="-1" numLanes="2" speed="13.89"/>
    <edge id="-1159" from="1158" to="1129" priority="-1" numLanes="2" speed="13.89"/>
    <edge id="-11605" from="11604" to="8085" priority="-1" numLanes="2" speed="13.89"/>
    <edge id="-11613" from="11612" to="11130" priority="-1" numLanes="2" speed="13.89"/>
    <edge id="-11614" from="11566" to="11130" priority="-1" numLanes="1" speed="13.89"/>
    <edge id="-1163" from="1162" to="1129" priority="-1" numLanes="1" speed="13.89"/>
    <edge id="-1167" from="1166" to="1129" priority="-1" numLanes="2" speed="13.89"/>
    <edge id="-11729" from="11728" to="11145" priority="-1" numLanes="1" speed="13.89"/>
    <edge id="-1173" from="1172" to="1108" priority="-1" numLanes="2" speed="13.89"/>
    <edge id="-11737" from="11736" to="11145" priority="-1" numLanes="2" speed="13.89"/>
    <edge id="-1179" from="1178" to="1108" priority="-1" numLanes="1" speed="13.89"/>
    <edge id="-1183" from="1182" to="515" priority="-1" numLanes="2" speed="13.89"/>
    <edge id="-1184" from="1182" to="517" priority="-1" numLanes="1" speed="13.89"/>
    <edge id="-11841" from="11840" to="11149" priority="-1" numLanes="2" speed="13.89"/>
    <edge id="-11845" from="11844" to="11149" priority="-1" numLanes="2" speed="13.89"/>
    <edge id="-11846" from="11736" to="11156" priority="-1" numLanes="1" speed="13.89"/>
    <edge id="-11852" from="11851" to="11156" priority="-1" numLanes="1" speed="13.89"/>
    <edge id="-11892" from="11891" to="11156" priority="-1" numLanes="2" speed="13.89"/>
    <edge id="-1194" from="1193" to="517" priority="-1" numLanes="1" speed="13.89"/>
    <edge id="-1199" from="1148" to="1146" priority="-1" numLanes="2" speed="13.89"/>
    <edge id="-11995" from="11288" to="11266" priority="-1" numLanes="2" speed="13.89"/>
    <edge id="-1200" from="228" to="1146" priority="-1" numLanes="2" speed="13.89"/>
    <edge id="-12007" from="12006" to="11266" priority="-1" numLanes="1" speed="13.89"/>
    <edge id="-12114" from="11421" to="11302" priority="-1" numLanes="2" speed="13.89"/>
    <edge id="-12224" from="12223" to="11315" priority="-1" numLanes="1" speed="13.89"/>
    <edge id="-12327" from="6815" to="11421" priority="-1" numLanes="1" speed="13.89"/>
    <edge id="-12328" from="11425" to="6815" priority="-1" numLanes="2" speed="13.89"/>
    <edge id="-12355" from="12354" to="11425" priority="-1" numLanes="2" speed="13.89"/>
    <edge id="-12356" from="11604" to="6818" priority="-1" numLanes="1" speed="13.89"/>
    <edge id="-12374" from="12373" to="591" priority="-1" numLanes="1" speed="13.89"/>
    <edge id="-12384" from="11439" to="9084" priority="-1" numLanes="2" speed="13.89"/>
    <edge id="-12389" from="12388" to="11439" priority="-1" numLanes="2" speed="13.89"/>
    <edge id="-12396" from="12395" to="11452" priority="-1" numLanes="2" speed="13.89"/>
    <edge id="-12404" from="12403" to="11452" priority="-1" numLanes="1" speed="13.89"/>
    <edge id="-12410" from="12409" to="11452" priority="-1" numLanes="1" speed="13.89"/>
    <edge id="-12414" from="12388" to="8866" priority="-1" numLanes="2" speed="13.89"/>
    <edge id="-12417" from="11998" to="6194" priority="-1" numLanes="1" speed="13.89"/>
    <edge id="-12418" from="11472" to="11470" priority="-1" numLanes="1" speed="13.89"/>
    <edge id="-12425" from="12424" to="11472" priority="-1" numLanes="1" speed="13.89"/>
    <edge id="-12481" from="12480" to="11472" priority="-1" numLanes="2" speed="13.89"/>
    <edge id="-12585" from="12584" to="11475" priority="-1" numLanes="2" speed="13.89"/>
    <edge id="-12589" from="12588" to="11475" priority="-1" numLanes="1" speed="13.89"/>
    <edge id="-12591" from="12590" to="11487" priority="-1" numLanes="1" speed="13.89"/>
    <edge id="-12597" from="12596" to="11487" priority="-1" numLanes="2" speed="13.89"/>
    <edge id="-12599" from="12598" to="11487" priority="-1" numLanes="2" speed="13.89"/>
    <edge id="-12603" from="12602" to="11015" priority="-1" numLanes="1" speed="13.89"/>
    <edge id="-12605" from="12602" to="11087" priority="-1" numLanes="2" speed="13.89"/>
    <edge id="-12622" from="11555" to="5180" priority="-1" numLanes="2" speed="13.89"/>
    <edge id="-12625" from="12624" to="11555" priority="-1" numLanes="2" speed="13.89"/>
    <edge id="-12627" from="12626" to="11555" priority="-1" numLanes="2" speed="13.89"/>
    <edge id="-12735" from="12734" to="9311" priority="-1" numLanes="2" speed="13.89"/>
    <edge id="-12738" from="11566" to="11562" priority="-1" numLanes="1" speed="13.89"/>
    <edge id="-12739" from="11604" to="11562" priority="-1" numLanes="2" speed="13.89"/>
    <edge id="-12741" from="12740" to="11566" priority="-1" numLanes="2" speed="13.89"/>
    <edge id="-12745" from="12744" to="11612" priority="-1" numLanes="1" speed="13.89"/>
    <edge id="-12751" from="12750" to="11612" priority="-1" numLanes="1" speed="13.89"/>
    <edge id="-12756" from="10383" to="11147" priority="-1" numLanes="2" speed="13.89"/>
    <edge id="-12860" from="12859" to="11844" priority="-1" numLanes="2" speed="13.89"/>
    <edge id="-12873" from="12872" to="10002" priority="-1" numLanes="1" speed="13.89"/>
    <edge id="-12998" from="12997" to="6815" priority="-1" numLanes="2" speed="13.89"/>
    <edge id="-13" from="12" to="1" priority="-1" numLanes="1" speed="13.89"/>
    <edge id="-13008" from="13007" to="12373" priority="-1" numLanes="2" speed="13.89"/>
    <edge id="-13120" from="8864" to="12388" priority="-1" numLanes="1" speed="13.89"/>
    <edge id="-13210" from="13209" to="12388" priority="-1" numLanes="1" speed="13.89"/>
    <edge id="-13215" from="13214" to="12395" priority="-1" numLanes="2" speed="13.89"/>
    <edge id="-13221" from="13220" to="12395" priority="-1" numLanes="1" speed="13.89"/>
    <edge id="-13222" from="12409" to="12395" priority="-1" numLanes="1" speed="13.89"/>
    <edge id="-13328" from="13209" to="8866" priority="-1" numLanes="1" speed="13.89"/>
    <edge id="-13329" from="11998" to="5929" priority="-1" numLanes="2" speed="13.89"/>
    <edge id="-13337" from="13336" to="11470" priority="-1" numLanes="1" speed="13.89"/>
    <edge id="-13338" from="12480" to="11470" priority="-1" numLanes="2" speed="13.89"/>
    <edge id="-13341" from="13340" to="12424" priority="-1" numLanes="1" speed="13.89"/>
    <edge id="-13349" from="13348" to="12424" priority="-1" numLanes="1" speed="13.89"/>
    <edge id="-13350" from="13340" to="12480" priority="-1" numLanes="2" speed="13.89"/>
    <edge id="-13454" from="13453" to="12584" priority="-1" numLanes="1" speed="13.89"/>
    <edge id="-13456" from="13455" to="12584" priority="-1" numLanes="1" speed="13.89"/>
    <edge id="-13468" from="13467" to="12584" priority="-1" numLanes="2" speed="13.89"/>
    <edge id="-1355" from="1354" to="1154" priority="-1" numLanes="2" speed="13.89"/>
    <edge id="-13577" from="13576" to="12596" priority="-1" numLanes="1" speed="13.89"/>
    <edge id="-13581" from="13580" to="12596" priority="-1" numLanes="1" speed="13.89"/>
    <edge id="-13584" from="12626" to="9257" priority="-1" numLanes="1" speed="13.89"/>
    <edge id="-13587" from="13586" to="12602" priority="-1" numLanes="1" speed="13.89"/>
    <edge id="-13589" from="13586" to="11087" priority="-1" numLanes="2" speed="13.89"/>
    <edge id="-13617" from="13616" to="12734" priority="-1" numLanes="1" speed="13.89"/>
    <edge id="-13619" from="13618" to="9311" priority="-1" numLanes="1" speed="13.89"/>
    <edge id="-1367" from="1366" to="1154" priority="-1" numLanes="2" speed="13.89"/>
    <edge id="-1368" from="1162" to="64" priority="-1" numLanes="1" speed="13.89"/>
    <edge id="-1372" from="66" to="1166" priority="-1" numLanes="2" speed="13.89"/>
    <edge id="-13725" from="13724" to="12744" priority="-1" numLanes="1" speed="13.89"/>
    <edge id="-1373" from="1158" to="1166" priority="-1" numLanes="2" speed="13.89"/>
    <edge id="-13731" from="13730" to="12744" priority="-1" numLanes="2" speed="13.89"/>
    <edge id="-13840" from="13839" to="11736" priority="-1" numLanes="1" speed="13.89"/>
    <edge id="-13843" from="11728" to="12859" priority="-1" numLanes="1" speed="13.89"/>
    <edge id="-13855" from="12872" to="9998" priority="-1" numLanes="1" speed="13.89"/>
    <edge id="-13865" from="13864" to="12872" priority="-1" numLanes="2" speed="13.89"/>
    <edge id="-13867" from="13866" to="12872" priority="-1" numLanes="2" speed="13.89"/>
    <edge id="-1390" from="1182" to="1178" priority="-1" numLanes="2" speed="13.89"/>
    <edge id="-1397" from="1396" to="581" priority="-1" numLanes="2" speed="13.89"/>
    <edge id="-1399" from="1398" to="581" priority="-1" numLanes="2" speed="13.89"/>
    <edge id="-1415" from="1414" to="82" priority="-1" numLanes="2" speed="13.89"/>
    <edge id="-14199" from="14198" to="9084" priority="-1" numLanes="1" speed="13.89"/>
    <edge id="-14204" from="14203" to="13209" priority="-1" numLanes="2" speed="13.89"/>
    <edge id="-14208" from="13220" to="13214" priority="-1" numLanes="1" speed="13.89"/>
    <edge id="-14209" from="12409" to="13214" priority="-1" numLanes="1" speed="13.89"/>
    <edge id="-1421" from="1420" to="82" priority="-1" numLanes="1" speed="13.89"/>
    <edge id="-14211" from="14210" to="13214" priority="-1" numLanes="2" speed="13.89"/>
    <edge id="-14215" from="14214" to="13214" priority="-1" numLanes="1" speed="13.89"/>
    <edge id="-14319" from="14318" to="12403" priority="-1" numLanes="2" speed="13.89"/>
    <edge id="-14323" from="14322" to="12403" priority="-1" numLanes="1" speed="13.89"/>
    <edge id="-1437" from="1436" to="1354" priority="-1" numLanes="2" speed="13.89"/>
    <edge id="-1439" from="1438" to="1354" priority="-1" numLanes="1" speed="13.89"/>
    <edge id="-1441" from="1440" to="1366" priority="-1" numLanes="2" speed="13.89"/>
    <edge id="-1446" from="1445" to="64" priority="-1" numLanes="1" speed="13.89"/>
    <edge id="-14529" from="14528" to="13340" priority="-1" numLanes="2" speed="13.89"/>
    <edge id="-14530" from="11499" to="13348" priority="-1" numLanes="1" speed="13.89"/>
    <edge id="-14533" from="13455" to="13453" priority="-1" numLanes="1" speed="13.89"/>
    <edge id="-14535" from="13467" to="13455" priority="-1" numLanes="2" speed="13.89"/>
    <edge id="-14537" from="14536" to="13455" priority="-1" numLanes="2" speed="13.89"/>
    <edge id="-14559" from="14558" to="13467" priority="-1" numLanes="2" speed="13.89"/>
    <edge id="-14662" from="13580" to="12590" priority="-1" numLanes="2" speed="13.89"/>
    <edge id="-14664" from="12588" to="13576" priority="-1" numLanes="2" speed="13.89"/>
    <edge id="-14666" from="14665" to="13576" priority="-1" numLanes="1" speed="13.89"/>
    <edge id="-14775" from="14774" to="13586" priority="-1" numLanes="2" speed="13.89"/>
    <edge id="-14796" from="14795" to="11087" priority="-1" numLanes="2" speed="13.89"/>
    <edge id="-1480" from="1479" to="64" priority="-1" numLanes="1" speed="13.89"/>
    <edge id="-14811" from="14810" to="7889" priority="-1" numLanes="1" speed="13.89"/>
    <edge id="-14821" from="14820" to="9892" priority="-1" numLanes="1" speed="13.89"/>
    <edge id="-14867" from="14866" to="6752" priority="-1" numLanes="1" speed="13.89"/>
    <edge id="-14875" from="13616" to="5288" priority="-1" numLanes="2" speed="13.89"/>
    <edge id="-14877" from="14876" to="13616" priority="-1" numLanes="1" speed="13.89"/>
    <edge id="-14881" from="14880" to="13618" priority="-1" numLanes="1" speed="13.89"/>
    <edge id="-14887" from="14886" to="13618" priority="-1" numLanes="2" speed="13.89"/>
    <edge id="-14888" from="13724" to="12740" priority="-1" numLanes="1" speed="13.89"/>
    <edge id="-14890" from="14889" to="12740" priority="-1" numLanes="2" speed="13.89"/>
    <edge id="-14892" from="12750" to="13730" priority="-1" numLanes="2" speed="13.89"/>
    <edge id="-14897" from="14896" to="12750" priority="-1" numLanes="1" speed="13.89"/>
    <edge id="-15" from="8" to="6" priority="-1" numLanes="1" speed="13.89"/>
    <edge id="-15001" from="13839" to="11728" priority="-1" numLanes="1" speed="13.89"/>
    <edge id="-15013" from="15012" to="13839" priority="-1" numLanes="2" speed="13.89"/>
    <edge id="-15017" from="15016" to="13839" priority="-1" numLanes="1" speed="13.89"/>
    <edge id="-15029" from="15028" to="11736" priority="-1" numLanes="1" speed="13.89"/>
    <edge id="-15033" from="11840" to="11844" priority="-1" numLanes="2" speed="13.89"/>
    <edge id="-15035" from="15028" to="11891" priority="-1" numLanes="1" speed="13.89"/>
    <edge id="-15047" from="12330" to="12997" priority="-1" numLanes="1" speed="13.89"/>
    <edge id="-15051" from="15050" to="12997" priority="-1" numLanes="1" speed="13.89"/>
    <edge id="-15063" from="8864" to="14198" priority="-1" numLanes="1" speed="13.89"/>
    <edge id="-15167" from="15166" to="14203" priority="-1" numLanes="1" speed="13.89"/>
    <edge id="-15175" from="15174" to="14203" priority="-1" numLanes="2" speed="13.89"/>
    <edge id="-15181" from="14210" to="13220" priority="-1" numLanes="1" speed="13.89"/>
    <edge id="-15183" from="15182" to="14318" priority="-1" numLanes="2" speed="13.89"/>
    <edge id="-15187" from="15186" to="14318" priority="-1" numLanes="2" speed="13.89"/>
    <edge id="-15195" from="15194" to="14318" priority="-1" numLanes="1" speed="13.89"/>
    <edge id="-15404" from="14558" to="14536" priority="-1" numLanes="2" speed="13.89"/>
    <edge id="-15410" from="15409" to="14536" priority="-1" numLanes="2" speed="13.89"/>
    <edge id="-15440" from="15439" to="14558" priority="-1" numLanes="1" speed="13.89"/>
    <edge id="-15448" from="15447" to="14665" priority="-1" numLanes="1" speed="13.89"/>
    <edge id="-15452" from="15451" to="14665" priority="-1" numLanes="2" speed="13.89"/>
    <edge id="-15458" from="15457" to="14665" priority="-1" numLanes="2" speed="13.89"/>
    <edge id="-15565" from="15564" to="14774" priority="-1" numLanes="2" speed="13.89"/>
    <edge id="-15567" from="15566" to="14774" priority="-1" numLanes="1" speed="13.89"/>
    <edge id="-15581" from="15580" to="14774" priority="-1" numLanes="2" speed="13.89"/>
    <edge id="-15583" from="15582" to="11015" priority="-1" numLanes="1" speed="13.89"/>
    <edge id="-15585" from="15584" to="14795" priority="-1" numLanes="2" speed="13.89"/>
    <edge id="-15591" from="15590" to="14795" priority="-1" numLanes="1" speed="13.89"/>
    <edge id="-15593" from="15592" to="14795" priority="-1" numLanes="2" speed="13.89"/>
    <edge id="-15808" from="15807" to="14820" priority="-1" numLanes="1" speed="13.89"/>
    <edge id="-15810" from="15809" to="14820" priority="-1" numLanes="1" speed="13.89"/>
    <edge id="-1584" from="1158" to="1386" priority="-1" numLanes="1" speed="13.89"/>
    <edge id="-1586" from="1585" to="1386" priority="-1" numLanes="2" speed="13.89"/>
    <edge id="-15921" from="14880" to="14876" priority="-1" numLanes="1" speed="13.89"/>
    <edge id="-15923" from="15922" to="14876" priority="-1" numLanes="1" speed="13.89"/>
    <edge id="-15927" from="15926" to="14876" priority="-1" numLanes="1" speed="13.89"/>
    <edge id="-15931" from="15930" to="14889" priority="-1" numLanes="2" speed="13.89"/>
    <edge id="-15933" from="15932" to="14889" priority="-1" numLanes="1" speed="13.89"/>
    <edge id="-15937" from="15936" to="14889" priority="-1" numLanes="2" speed="13.89"/>
    <edge id="-15945" from="15012" to="15028" priority="-1" numLanes="1" speed="13.89"/>
    <edge id="-1596" from="1595" to="1396" priority="-1" numLanes="1" speed="13.89"/>
    <edge id="-15961" from="15960" to="15050" priority="-1" numLanes="1" speed="13.89"/>
    <edge id="-15965" from="15964" to="15050" priority="-1" numLanes="1" speed="13.89"/>
    <edge id="-15967" from="15932" to="12354" priority="-1" numLanes="2" speed="13.89"/>
    <edge id="-15971" from="15409" to="9689" priority="-1" numLanes="1" speed="13.89"/>
    <edge id="-15986" from="15194" to="14214" priority="-1" numLanes="1" speed="13.89"/>
    <edge id="-15994" from="15993" to="14322" priority="-1" numLanes="1" speed="13.89"/>
    <edge id="-1600" from="1599" to="1396" priority="-1" numLanes="1" speed="13.89"/>
    <edge id="-1601" from="591" to="1398" priority="-1" numLanes="2" speed="13.89"/>
    <edge id="-16012" from="16011" to="14322" priority="-1" numLanes="1" speed="13.89"/>
    <edge id="-1611" from="1610" to="1398" priority="-1" numLanes="1" speed="13.89"/>
    <edge id="-16130" from="15566" to="15564" priority="-1" numLanes="2" speed="13.89"/>
    <edge id="-16132" from="15590" to="15566" priority="-1" numLanes="2" speed="13.89"/>
    <edge id="-16133" from="15582" to="15580" priority="-1" numLanes="2" speed="13.89"/>
    <edge id="-16135" from="9253" to="15582" priority="-1" numLanes="1" speed="13.89"/>
    <edge id="-1624" from="1623" to="1440" priority="-1" numLanes="2" speed="13.89"/>
    <edge id="-16244" from="15809" to="7957" priority="-1" numLanes="2" speed="13.89"/>
    <edge id="-1625" from="1414" to="1440" priority="-1" numLanes="1" speed="13.89"/>
    <edge id="-16250" from="15807" to="9888" priority="-1" numLanes="1" speed="13.89"/>
    <edge id="-16274" from="16273" to="15809" priority="-1" numLanes="1" speed="13.89"/>
    <edge id="-16285" from="15926" to="15922" priority="-1" numLanes="2" speed="13.89"/>
    <edge id="-16288" from="16287" to="15926" priority="-1" numLanes="2" speed="13.89"/>
    <edge id="-16301" from="16300" to="15016" priority="-1" numLanes="2" speed="13.89"/>
    <edge id="-16304" from="16300" to="12859" priority="-1" numLanes="2" speed="13.89"/>
    <edge id="-16316" from="15960" to="13866" priority="-1" numLanes="2" speed="13.89"/>
    <edge id="-16317" from="15964" to="13866" priority="-1" numLanes="2" speed="13.89"/>
    <edge id="-16335" from="16334" to="5432" priority="-1" numLanes="1" speed="13.89"/>
    <edge id="-16339" from="16334" to="5480" priority="-1" numLanes="1" speed="13.89"/>
    <edge id="-16351" from="16350" to="15174" priority="-1" numLanes="2" speed="13.89"/>
    <edge id="-16360" from="16359" to="15186" priority="-1" numLanes="1" speed="13.89"/>
    <edge id="-16469" from="16468" to="13453" priority="-1" numLanes="1" speed="13.89"/>
    <edge id="-16495" from="16494" to="9257" priority="-1" numLanes="1" speed="13.89"/>
    <edge id="-16519" from="16518" to="16273" priority="-1" numLanes="2" speed="13.89"/>
    <edge id="-16535" from="16534" to="16273" priority="-1" numLanes="2" speed="13.89"/>
    <edge id="-16541" from="16494" to="5180" priority="-1" numLanes="1" speed="13.89"/>
    <edge id="-16543" from="16494" to="12626" priority="-1" numLanes="2" speed="13.89"/>
    <edge id="-16547" from="15936" to="16287" priority="-1" numLanes="2" speed="13.89"/>
    <edge id="-16560" from="11840" to="16300" priority="-1" numLanes="2" speed="13.89"/>
    <edge id="-16566" from="16565" to="16300" priority="-1" numLanes="2" speed="13.89"/>
    <edge id="-16577" from="16576" to="12006" priority="-1" numLanes="1" speed="13.89"/>
    <edge id="-16685" from="16684" to="13864" priority="-1" numLanes="2" speed="13.89"/>
    <edge id="-16687" from="16686" to="13864" priority="-1" numLanes="1" speed="13.89"/>
    <edge id="-16703" from="16702" to="13864" priority="-1" numLanes="2" speed="13.89"/>
    <edge id="-16713" from="16334" to="3540" priority="-1" numLanes="1" speed="13.89"/>
    <edge id="-16818" from="16350" to="15166" priority="-1" numLanes="1" speed="13.89"/>
    <edge id="-16825" from="16824" to="16350" priority="-1" numLanes="1" speed="13.89"/>
    <edge id="-16829" from="16828" to="16350" priority="-1" numLanes="1" speed="13.89"/>
    <edge id="-16836" from="16835" to="14214" priority="-1" numLanes="1" speed="13.89"/>
    <edge id="-16863" from="16862" to="15182" priority="-1" numLanes="1" speed="13.89"/>
    <edge id="-16864" from="16862" to="16359" priority="-1" numLanes="2" speed="13.89"/>
    <edge id="-16970" from="15409" to="16468" priority="-1" numLanes="1" speed="13.89"/>
    <edge id="-16994" from="16993" to="16468" priority="-1" numLanes="1" speed="13.89"/>
    <edge id="-16997" from="16996" to="15439" priority="-1" numLanes="2" speed="13.89"/>
    <edge id="-16999" from="16998" to="15439" priority="-1" numLanes="1" speed="13.89"/>
    <edge id="-17009" from="17008" to="15439" priority="-1" numLanes="1" speed="13.89"/>
    <edge id="-17015" from="17014" to="15457" priority="-1" numLanes="1" speed="13.89"/>
    <edge id="-17023" from="17022" to="12598" priority="-1" numLanes="2" speed="13.89"/>