<?xml version="1.0" encoding="UTF-8"?>
<net>

    <!-- ====================================================================== -->

    <nodes>
        <node id="0" x="0" y="0">
        </node>
        <node id="1" x="100" y="200">
        </node>
        <node id="2" x="200" y="100">
        </node>
        <node id="3" x="200" y="400">
        </node>
        <node id="4" x="300" y="200">
        </node>
    </nodes>

    <!-- ====================================================================== -->

    <links capperiod="01:00:00" effectivecellsize="7.5" effectivelanewidth="3.75">
        <link id="0" from="0" to="1" length="223.70"
            freespeed="27.78" capacity="4000.0" permlanes="1.0" oneway="1">
        </link>
        <link id="1" from="1" to="2" length="145" freespeed="12.501000000000001"
            capacity="1500.0" permlanes="1.0" oneway="1">
        </link>
        <link id="2" from="1" to="3" length="250" freespeed="12.501000000000001"
            capacity="2500.0" permlanes="2.0" oneway="1">
        </link>
        <link id="3" from="2" to="4" length="145" freespeed="12.501000000000001"
            capacity="1500.0" permlanes="1.0" oneway="1">
        </link>
        <link id="4" from="3" to="4" length="250" freespeed="12.501000000000001"
            capacity="2500.0" permlanes="2.0" oneway="1">
        </link>

    </links>

    <!-- ====================================================================== -->

</net>