<?xml version="1.0" encoding="UTF-8"?>

<routes xmlns:xsi="http://www.w3.org/2001/XMLSchema-instance" xsi:noNamespaceSchemaLocation="http://sumo.dlr.de/xsd/routes_file.xsd">
    <trip id="0" depart="0.00" from="v0v1" to="v2v0" departLane="best" departSpeed="max" departPos="base" arrivalPos="0.0" />
    <trip id="1" depart="50.00" from="v0v1" to="v2v0" departLane="best" departSpeed="max" departPos="base" arrivalPos="0.0" />
    <trip id="2" depart="100.00" from="v0v1" to="v2v0" departLane="best" departSpeed="max" departPos="base" arrivalPos="0.0" />
    <trip id="3" depart="200.00" from="v0v1" to="v2v0" departLane="best" departSpeed="max" departPos="base" arrivalPos="0.0" />
</routes>