<?xml version="1.0" encoding="UTF-8"?>

<!-- generated on 2025-07-03 12:14:52 by Eclipse SUMO netconvert Version 1.23.1
<netconvertConfiguration xmlns:xsi="http://www.w3.org/2001/XMLSchema-instance" xsi:noNamespaceSchemaLocation="http://sumo.dlr.de/xsd/netconvertConfiguration.xsd">

    <input>
        <sumo-net-file value="grid.net.xml"/>
    </input>

    <output>
        <plain-output-prefix value="grid"/>
    </output>

    <processing>
        <geometry.min-radius.fix.railways value="false"/>
        <geometry.avoid-overlap value="false"/>
        <geometry.max-grade.fix value="false"/>
        <offset.disable-normalization value="true"/>
        <lefthand value="0"/>
    </processing>

    <junctions>
        <no-turnarounds value="true"/>
        <junctions.corner-detail value="5"/>
        <junctions.limit-turn-speed value="5.50"/>
        <rectangular-lane-cut value="0"/>
    </junctions>

    <pedestrian>
        <walkingareas value="0"/>
    </pedestrian>

</netconvertConfiguration>
-->

<nodes version="1.20" xmlns:xsi="http://www.w3.org/2001/XMLSchema-instance" xsi:noNamespaceSchemaLocation="http://sumo.dlr.de/xsd/nodes_file.xsd">
    <location netOffset="0.00,0.00" convBoundary="0.00,0.00,3600.00,3600.00" origBoundary="0.00,0.00,3600.00,3600.00" projParameter="!"/>

    <node id="A0" x="0.00" y="0.00" type="priority"/>
    <node id="A1" x="0.00" y="400.00" type="priority"/>
    <node id="A2" x="0.00" y="800.00" type="priority"/>
    <node id="A3" x="0.00" y="1200.00" type="priority"/>
    <node id="A4" x="0.00" y="1600.00" type="priority"/>
    <node id="A5" x="0.00" y="2000.00" type="priority"/>
    <node id="A6" x="0.00" y="2400.00" type="priority"/>
    <node id="A7" x="0.00" y="2800.00" type="priority"/>
    <node id="A8" x="0.00" y="3200.00" type="priority"/>
    <node id="A9" x="0.00" y="3600.00" type="priority"/>
    <node id="B0" x="400.00" y="0.00" type="priority"/>
    <node id="B1" x="400.00" y="400.00" type="priority"/>
    <node id="B2" x="400.00" y="800.00" type="priority"/>
    <node id="B3" x="400.00" y="1200.00" type="priority"/>
    <node id="B4" x="400.00" y="1600.00" type="priority"/>
    <node id="B5" x="400.00" y="2000.00" type="priority"/>
    <node id="B6" x="400.00" y="2400.00" type="priority"/>
    <node id="B7" x="400.00" y="2800.00" type="priority"/>
    <node id="B8" x="400.00" y="3200.00" type="priority"/>
    <node id="B9" x="400.00" y="3600.00" type="priority"/>
    <node id="C0" x="800.00" y="0.00" type="priority"/>
    <node id="C1" x="800.00" y="400.00" type="priority"/>
    <node id="C2" x="800.00" y="800.00" type="priority"/>
    <node id="C3" x="800.00" y="1200.00" type="priority"/>
    <node id="C4" x="800.00" y="1600.00" type="priority"/>
    <node id="C5" x="800.00" y="2000.00" type="priority"/>
    <node id="C6" x="800.00" y="2400.00" type="priority"/>
    <node id="C7" x="800.00" y="2800.00" type="priority"/>
    <node id="C8" x="800.00" y="3200.00" type="priority"/>
    <node id="C9" x="800.00" y="3600.00" type="priority"/>
    <node id="D0" x="1200.00" y="0.00" type="priority"/>
    <node id="D1" x="1200.00" y="400.00" type="priority"/>
    <node id="D2" x="1200.00" y="800.00" type="priority"/>
    <node id="D3" x="1200.00" y="1200.00" type="priority"/>
    <node id="D4" x="1200.00" y="1600.00" type="priority"/>
    <node id="D5" x="1200.00" y="2000.00" type="priority"/>
    <node id="D6" x="1200.00" y="2400.00" type="priority"/>
    <node id="D7" x="1200.00" y="2800.00" type="priority"/>
    <node id="D8" x="1200.00" y="3200.00" type="priority"/>
    <node id="D9" x="1200.00" y="3600.00" type="priority"/>
    <node id="E0" x="1600.00" y="0.00" type="priority"/>
    <node id="E1" x="1600.00" y="400.00" type="priority"/>
    <node id="E2" x="1600.00" y="800.00" type="priority"/>
    <node id="E3" x="1600.00" y="1200.00" type="priority"/>
    <node id="E4" x="1600.00" y="1600.00" type="priority"/>
    <node id="E5" x="1600.00" y="2000.00" type="priority"/>
    <node id="E6" x="1600.00" y="2400.00" type="priority"/>
    <node id="E7" x="1600.00" y="2800.00" type="priority"/>
    <node id="E8" x="1600.00" y="3200.00" type="priority"/>
    <node id="E9" x="1600.00" y="3600.00" type="priority"/>
    <node id="F0" x="2000.00" y="0.00" type="priority"/>
    <node id="F1" x="2000.00" y="400.00" type="priority"/>
    <node id="F2" x="2000.00" y="800.00" type="priority"/>
    <node id="F3" x="2000.00" y="1200.00" type="priority"/>
    <node id="F4" x="2000.00" y="1600.00" type="priority"/>
    <node id="F5" x="2000.00" y="2000.00" type="priority"/>
    <node id="F6" x="2000.00" y="2400.00" type="priority"/>
    <node id="F7" x="2000.00" y="2800.00" type="priority"/>
    <node id="F8" x="2000.00" y="3200.00" type="priority"/>
    <node id="F9" x="2000.00" y="3600.00" type="priority"/>
    <node id="G0" x="2400.00" y="0.00" type="priority"/>
    <node id="G1" x="2400.00" y="400.00" type="priority"/>
    <node id="G2" x="2400.00" y="800.00" type="priority"/>
    <node id="G3" x="2400.00" y="1200.00" type="priority"/>
    <node id="G4" x="2400.00" y="1600.00" type="priority"/>
    <node id="G5" x="2400.00" y="2000.00" type="priority"/>
    <node id="G6" x="2400.00" y="2400.00" type="priority"/>
    <node id="G7" x="2400.00" y="2800.00" type="priority"/>
    <node id="G8" x="2400.00" y="3200.00" type="priority"/>
    <node id="G9" x="2400.00" y="3600.00" type="priority"/>
    <node id="H0" x="2800.00" y="0.00" type="priority"/>
    <node id="H1" x="2800.00" y="400.00" type="priority"/>
    <node id="H2" x="2800.00" y="800.00" type="priority"/>
    <node id="H3" x="2800.00" y="1200.00" type="priority"/>
    <node id="H4" x="2800.00" y="1600.00" type="priority"/>
    <node id="H5" x="2800.00" y="2000.00" type="priority"/>
    <node id="H6" x="2800.00" y="2400.00" type="priority"/>
    <node id="H7" x="2800.00" y="2800.00" type="priority"/>
    <node id="H8" x="2800.00" y="3200.00" type="priority"/>
    <node id="H9" x="2800.00" y="3600.00" type="priority"/>
    <node id="I0" x="3200.00" y="0.00" type="priority"/>
    <node id="I1" x="3200.00" y="400.00" type="priority"/>
    <node id="I2" x="3200.00" y="800.00" type="priority"/>
    <node id="I3" x="3200.00" y="1200.00" type="priority"/>
    <node id="I4" x="3200.00" y="1600.00" type="priority"/>
    <node id="I5" x="3200.00" y="2000.00" type="priority"/>
    <node id="I6" x="3200.00" y="2400.00" type="priority"/>
    <node id="I7" x="3200.00" y="2800.00" type="priority"/>
    <node id="I8" x="3200.00" y="3200.00" type="priority"/>
    <node id="I9" x="3200.00" y="3600.00" type="priority"/>
    <node id="J0" x="3600.00" y="0.00" type="priority"/>
    <node id="J1" x="3600.00" y="400.00" type="priority"/>
    <node id="J2" x="3600.00" y="800.00" type="priority"/>
    <node id="J3" x="3600.00" y="1200.00" type="priority"/>
    <node id="J4" x="3600.00" y="1600.00" type="priority"/>
    <node id="J5" x="3600.00" y="2000.00" type="priority"/>
    <node id="J6" x="3600.00" y="2400.00" type="priority"/>
    <node id="J7" x="3600.00" y="2800.00" type="priority"/>
    <node id="J8" x="3600.00" y="3200.00" type="priority"/>
    <node id="J9" x="3600.00" y="3600.00" type="priority"/>
</nodes>
