<?xml version="1.0" encoding="UTF-8"?>

<!-- Modified with 1500 additional trips: A0A1->J9J8 and A0B0->J9I9 in alternating pattern -->

<routes xmlns:xsi="http://www.w3.org/2001/XMLSchema-instance" xsi:noNamespaceSchemaLocation="http://sumo.dlr.de/xsd/routes_file.xsd">
    <trip id="1" depart="0.00" from="G3G2" to="A3A4"/>
    <trip id="2" depart="0.00" from="A0A1" to="J8J9"/>
    <trip id="3" depart="0.80" from="C8C9" to="C3D3"/>
    <trip id="4" depart="0.80" from="A0B0" to="I9J9"/>
    <trip id="5" depart="1.60" from="H2H3" to="G6G7"/>
    <trip id="6" depart="1.60" from="A0A1" to="J8J9"/>
    <trip id="7" depart="2.40" from="I7H7" to="B1A1"/>
    <trip id="8" depart="2.40" from="A0B0" to="I9J9"/>
    <trip id="9" depart="3.20" from="E2E3" to="A3B3"/>
    <trip id="10" depart="3.20" from="A0A1" to="J8J9"/>
    <trip id="11" depart="4.00" from="C3C2" to="F0F1"/>
    <trip id="12" depart="4.00" from="A0B0" to="I9J9"/>
    <trip id="13" depart="4.80" from="A3A4" to="C1C2"/>
    <trip id="14" depart="4.80" from="A0A1" to="J8J9"/>
    <trip id="15" depart="5.60" from="G4F4" to="F4F3"/>
    <trip id="16" depart="5.60" from="A0B0" to="I9J9"/>
    <trip id="17" depart="6.40" from="C3C4" to="F8F7"/>
    <trip id="18" depart="6.40" from="A0A1" to="J8J9"/>
    <trip id="19" depart="7.20" from="H9G9" to="A1A0"/>
    <trip id="20" depart="7.20" from="A0B0" to="I9J9"/>
    <trip id="21" depart="8.00" from="H8I8" to="G8G9"/>
    <trip id="22" depart="8.00" from="A0A1" to="J8J9"/>
    <trip id="23" depart="8.80" from="D4E4" to="B7A7"/>
    <trip id="24" depart="8.80" from="A0B0" to="I9J9"/>
    <trip id="25" depart="9.60" from="J4J3" to="D4D5"/>
    <trip id="26" depart="9.60" from="A0A1" to="J8J9"/>
    <trip id="27" depart="10.40" from="B1B2" to="B1C1"/>
    <trip id="28" depart="10.40" from="A0B0" to="I9J9"/>
    <trip id="29" depart="11.20" from="I3H3" to="F9G9"/>
    <trip id="30" depart="11.20" from="A0A1" to="J8J9"/>
    <trip id="31" depart="12.00" from="H8I8" to="H1I1"/>
    <trip id="32" depart="12.00" from="A0B0" to="I9J9"/>
    <trip id="33" depart="12.80" from="F3F4" to="J6J5"/>
    <trip id="34" depart="12.80" from="A0A1" to="J8J9"/>
    <trip id="35" depart="13.60" from="D8D7" to="F4G4"/>
    <trip id="36" depart="13.60" from="A0B0" to="I9J9"/>
    <trip id="37" depart="14.40" from="I1I0" to="G1G0"/>
    <trip id="38" depart="14.40" from="A0A1" to="J8J9"/>
    <trip id="39" depart="15.20" from="I4I3" to="F7E7"/>
    <trip id="40" depart="15.20" from="A0B0" to="I9J9"/>
    <trip id="41" depart="16.00" from="G9F9" to="A5B5"/>
    <trip id="42" depart="16.00" from="A0A1" to="J8J9"/>
    <trip id="43" depart="16.80" from="C4C3" to="D0C0"/>
    <trip id="44" depart="16.80" from="A0B0" to="I9J9"/>
    <trip id="45" depart="17.60" from="B0A0" to="C4C5"/>
    <trip id="46" depart="17.60" from="A0A1" to="J8J9"/>
    <trip id="47" depart="18.40" from="B2B1" to="C8D8"/>
    <trip id="48" depart="18.40" from="A0B0" to="I9J9"/>
    <trip id="49" depart="19.20" from="G2H2" to="D7C7"/>
    <trip id="50" depart="19.20" from="A0A1" to="J8J9"/>
    <trip id="51" depart="20.00" from="D7D8" to="C2C3"/>
    <trip id="52" depart="20.00" from="A0B0" to="I9J9"/>
    <trip id="53" depart="20.80" from="C7D7" to="J2I2"/>
    <trip id="54" depart="20.80" from="A0A1" to="J8J9"/>
    <trip id="55" depart="21.60" from="G4F4" to="G0G1"/>
    <trip id="56" depart="21.60" from="A0B0" to="I9J9"/>
    <trip id="57" depart="22.40" from="B8B9" to="H1I1"/>
    <trip id="58" depart="22.40" from="A0A1" to="J8J9"/>
    <trip id="59" depart="23.20" from="B7C7" to="D8D7"/>
    <trip id="60" depart="23.20" from="A0B0" to="I9J9"/>
    <trip id="61" depart="24.00" from="J8J7" to="G3G2"/>
    <trip id="62" depart="24.00" from="A0A1" to="J8J9"/>
    <trip id="63" depart="24.80" from="F5F4" to="G7G6"/>
    <trip id="64" depart="24.80" from="A0B0" to="I9J9"/>
    <trip id="65" depart="25.60" from="I2I3" to="H6G6"/>
    <trip id="66" depart="25.60" from="A0A1" to="J8J9"/>
    <trip id="67" depart="26.40" from="C4C3" to="A4A3"/>
    <trip id="68" depart="26.40" from="A0B0" to="I9J9"/>
    <trip id="69" depart="27.20" from="D2D3" to="C7D7"/>
    <trip id="70" depart="27.20" from="A0A1" to="J8J9"/>
    <trip id="71" depart="28.00" from="C2C3" to="J2J3"/>
    <trip id="72" depart="28.00" from="A0B0" to="I9J9"/>
    <trip id="73" depart="28.80" from="I5I6" to="D2D3"/>
    <trip id="74" depart="28.80" from="A0A1" to="J8J9"/>
    <trip id="75" depart="29.60" from="G4G5" to="E0D0"/>
    <trip id="76" depart="29.60" from="A0B0" to="I9J9"/>
    <trip id="77" depart="30.40" from="I9H9" to="E6D6"/>
    <trip id="78" depart="30.40" from="A0A1" to="J8J9"/>
    <trip id="79" depart="31.20" from="C7C8" to="C5D5"/>
    <trip id="80" depart="31.20" from="A0B0" to="I9J9"/>
    <trip id="81" depart="32.00" from="F5G5" to="C7C6"/>
    <trip id="82" depart="32.00" from="A0A1" to="J8J9"/>
    <trip id="83" depart="32.80" from="F7G7" to="I7I8"/>
    <trip id="84" depart="32.80" from="A0B0" to="I9J9"/>
    <trip id="85" depart="33.60" from="E0E1" to="C3C2"/>
    <trip id="86" depart="33.60" from="A0A1" to="J8J9"/>
    <trip id="87" depart="34.40" from="J9J8" to="F1E1"/>
    <trip id="88" depart="34.40" from="A0B0" to="I9J9"/>
    <trip id="89" depart="35.20" from="B1B0" to="A5B5"/>
    <trip id="90" depart="35.20" from="A0A1" to="J8J9"/>
    <trip id="91" depart="36.00" from="B3A3" to="G2F2"/>
    <trip id="92" depart="36.00" from="A0B0" to="I9J9"/>
    <trip id="93" depart="36.80" from="H7H8" to="E2E3"/>
    <trip id="94" depart="36.80" from="A0A1" to="J8J9"/>
    <trip id="95" depart="37.60" from="A7B7" to="D8D9"/>
    <trip id="96" depart="37.60" from="A0B0" to="I9J9"/>
    <trip id="97" depart="38.40" from="J9I9" to="F2G2"/>
    <trip id="98" depart="38.40" from="A0A1" to="J8J9"/>
    <trip id="99" depart="39.20" from="J6I6" to="I4H4"/>
    <trip id="100" depart="39.20" from="A0B0" to="I9J9"/>
    <trip id="101" depart="40.00" from="A1B1" to="H1G1"/>
    <trip id="102" depart="40.00" from="A0A1" to="J8J9"/>
    <trip id="103" depart="40.80" from="G7F7" to="F3F4"/>
    <trip id="104" depart="40.80" from="A0B0" to="I9J9"/>
    <trip id="105" depart="41.60" from="C7D7" to="G3G2"/>
    <trip id="106" depart="41.60" from="A0A1" to="J8J9"/>
    <trip id="107" depart="42.40" from="B3B2" to="E3F3"/>
    <trip id="108" depart="42.40" from="A0B0" to="I9J9"/>
    <trip id="109" depart="43.20" from="E5E6" to="J4I4"/>
    <trip id="110" depart="43.20" from="A0A1" to="J8J9"/>
    <trip id="111" depart="44.00" from="I5I6" to="C7C6"/>
    <trip id="112" depart="44.00" from="A0B0" to="I9J9"/>
    <trip id="113" depart="44.80" from="F0E0" to="B9B8"/>
    <trip id="114" depart="44.80" from="A0A1" to="J8J9"/>
    <trip id="115" depart="45.60" from="I8J8" to="I5H5"/>
    <trip id="116" depart="45.60" from="A0B0" to="I9J9"/>
    <trip id="117" depart="46.40" from="D1C1" to="G3G2"/>
    <trip id="118" depart="46.40" from="A0A1" to="J8J9"/>
    <trip id="119" depart="47.20" from="G0G1" to="B7A7"/>
    <trip id="120" depart="47.20" from="A0B0" to="I9J9"/>
    <trip id="121" depart="48.00" from="H4I4" to="F3G3"/>
    <trip id="122" depart="48.00" from="A0A1" to="J8J9"/>
    <trip id="123" depart="48.80" from="H6H5" to="F2G2"/>
    <trip id="124" depart="48.80" from="A0B0" to="I9J9"/>
    <trip id="125" depart="49.60" from="A0A1" to="D3D2"/>
    <trip id="126" depart="49.60" from="A0A1" to="J8J9"/>
    <trip id="127" depart="50.40" from="A2B2" to="J1I1"/>
    <trip id="128" depart="50.40" from="A0B0" to="I9J9"/>
    <trip id="129" depart="51.20" from="I5J5" to="I1I2"/>
    <trip id="130" depart="51.20" from="A0A1" to="J8J9"/>
    <trip id="131" depart="52.00" from="D1E1" to="A7A6"/>
    <trip id="132" depart="52.00" from="A0B0" to="I9J9"/>
    <trip id="133" depart="52.80" from="I5J5" to="J3I3"/>
    <trip id="134" depart="52.80" from="A0A1" to="J8J9"/>
    <trip id="135" depart="53.60" from="B0C0" to="E8E7"/>
    <trip id="136" depart="53.60" from="A0B0" to="I9J9"/>
    <trip id="137" depart="54.40" from="A8A9" to="H4H5"/>
    <trip id="138" depart="54.40" from="A0A1" to="J8J9"/>
    <trip id="139" depart="55.20" from="H5G5" to="B4C4"/>
    <trip id="140" depart="55.20" from="A0B0" to="I9J9"/>
    <trip id="141" depart="56.00" from="E7E8" to="F4F5"/>
    <trip id="142" depart="56.00" from="A0A1" to="J8J9"/>
    <trip id="143" depart="56.80" from="C7C8" to="I5I4"/>
    <trip id="144" depart="56.80" from="A0B0" to="I9J9"/>
    <trip id="145" depart="57.60" from="E2F2" to="C2D2"/>
    <trip id="146" depart="57.60" from="A0A1" to="J8J9"/>
    <trip id="147" depart="58.40" from="F3G3" to="H1I1"/>
    <trip id="148" depart="58.40" from="A0B0" to="I9J9"/>
    <trip id="149" depart="59.20" from="C1D1" to="D2D1"/>
    <trip id="150" depart="59.20" from="A0A1" to="J8J9"/>
    <trip id="151" depart="60.00" from="J9I9" to="G4F4"/>
    <trip id="152" depart="60.00" from="A0B0" to="I9J9"/>
    <trip id="153" depart="60.80" from="E4D4" to="F1G1"/>
    <trip id="154" depart="60.80" from="A0A1" to="J8J9"/>
    <trip id="155" depart="61.60" from="B4A4" to="C3D3"/>
    <trip id="156" depart="61.60" from="A0B0" to="I9J9"/>
    <trip id="157" depart="62.40" from="D4D5" to="F8E8"/>
    <trip id="158" depart="62.40" from="A0A1" to="J8J9"/>
    <trip id="159" depart="63.20" from="C4C3" to="C3C4"/>
    <trip id="160" depart="63.20" from="A0B0" to="I9J9"/>
    <trip id="161" depart="64.00" from="A8B8" to="G2G3"/>
    <trip id="162" depart="64.00" from="A0A1" to="J8J9"/>
    <trip id="163" depart="64.80" from="C4C3" to="I8H8"/>
    <trip id="164" depart="64.80" from="A0B0" to="I9J9"/>
    <trip id="165" depart="65.60" from="I4H4" to="A8B8"/>
    <trip id="166" depart="65.60" from="A0A1" to="J8J9"/>
    <trip id="167" depart="66.40" from="C5B5" to="G5H5"/>
    <trip id="168" depart="66.40" from="A0B0" to="I9J9"/>
    <trip id="169" depart="67.20" from="C3B3" to="B5A5"/>
    <trip id="170" depart="67.20" from="A0A1" to="J8J9"/>
    <trip id="171" depart="68.00" from="J1J2" to="F6F7"/>
    <trip id="172" depart="68.00" from="A0B0" to="I9J9"/>
    <trip id="173" depart="68.80" from="E7E6" to="H6I6"/>
    <trip id="174" depart="68.80" from="A0A1" to="J8J9"/>
    <trip id="175" depart="69.60" from="H8I8" to="C0D0"/>
    <trip id="176" depart="69.60" from="A0B0" to="I9J9"/>
    <trip id="177" depart="70.40" from="B1C1" to="E3E4"/>
    <trip id="178" depart="70.40" from="A0A1" to="J8J9"/>
    <trip id="179" depart="71.20" from="E2F2" to="E6F6"/>
    <trip id="180" depart="71.20" from="A0B0" to="I9J9"/>
    <trip id="181" depart="72.00" from="H1I1" to="G6G5"/>
    <trip id="182" depart="72.00" from="A0A1" to="J8J9"/>
    <trip id="183" depart="72.80" from="J7J8" to="B2A2"/>
    <trip id="184" depart="72.80" from="A0B0" to="I9J9"/>
    <trip id="185" depart="73.60" from="E0F0" to="D4E4"/>
    <trip id="186" depart="73.60" from="A0A1" to="J8J9"/>
    <trip id="187" depart="74.40" from="I4I3" to="C6B6"/>
    <trip id="188" depart="74.40" from="A0B0" to="I9J9"/>
    <trip id="189" depart="75.20" from="C0D0" to="E5D5"/>
    <trip id="190" depart="75.20" from="A0A1" to="J8J9"/>
    <trip id="191" depart="76.00" from="E2E3" to="C8D8"/>
    <trip id="192" depart="76.00" from="A0B0" to="I9J9"/>
    <trip id="193" depart="76.80" from="C6B6" to="J0I0"/>
    <trip id="194" depart="76.80" from="A0A1" to="J8J9"/>
    <trip id="195" depart="77.60" from="E4E5" to="I4I3"/>
    <trip id="196" depart="77.60" from="A0B0" to="I9J9"/>
    <trip id="197" depart="78.40" from="F4G4" to="A6A7"/>
    <trip id="198" depart="78.40" from="A0A1" to="J8J9"/>
    <trip id="199" depart="79.20" from="J9J8" to="I1J1"/>
    <trip id="200" depart="79.20" from="A0B0" to="I9J9"/>
    <trip id="201" depart="80.00" from="J5J6" to="J0J1"/>
    <trip id="202" depart="80.00" from="A0A1" to="J8J9"/>
    <trip id="203" depart="80.80" from="I3H3" to="B8A8"/>
    <trip id="204" depart="80.80" from="A0B0" to="I9J9"/>
    <trip id="205" depart="81.60" from="E8E7" to="C2D2"/>
    <trip id="206" depart="81.60" from="A0A1" to="J8J9"/>
    <trip id="207" depart="82.40" from="E0F0" to="A7A8"/>
    <trip id="208" depart="82.40" from="A0B0" to="I9J9"/>
    <trip id="209" depart="83.20" from="D8D7" to="J7J8"/>
    <trip id="210" depart="83.20" from="A0A1" to="J8J9"/>
    <trip id="211" depart="84.00" from="C7C8" to="H6I6"/>
    <trip id="212" depart="84.00" from="A0B0" to="I9J9"/>
    <trip id="213" depart="84.80" from="E5E6" to="E2F2"/>
    <trip id="214" depart="84.80" from="A0A1" to="J8J9"/>
    <trip id="215" depart="85.60" from="J4J3" to="I9J9"/>
    <trip id="216" depart="85.60" from="A0B0" to="I9J9"/>
    <trip id="217" depart="86.40" from="F5F4" to="H0I0"/>
    <trip id="218" depart="86.40" from="A0A1" to="J8J9"/>
    <trip id="219" depart="87.20" from="B7A7" to="D0E0"/>
    <trip id="220" depart="87.20" from="A0B0" to="I9J9"/>
    <trip id="221" depart="88.00" from="J5J6" to="F7F6"/>
    <trip id="222" depart="88.00" from="A0A1" to="J8J9"/>
    <trip id="223" depart="88.80" from="F4E4" to="H3H4"/>
    <trip id="224" depart="88.80" from="A0B0" to="I9J9"/>
    <trip id="225" depart="89.60" from="A7A6" to="F7G7"/>
    <trip id="226" depart="89.60" from="A0A1" to="J8J9"/>
    <trip id="227" depart="90.40" from="F0F1" to="I3I2"/>
    <trip id="228" depart="90.40" from="A0B0" to="I9J9"/>
    <trip id="229" depart="91.20" from="B7B6" to="J4J5"/>
    <trip id="230" depart="91.20" from="A0A1" to="J8J9"/>
    <trip id="231" depart="92.00" from="B0A0" to="C0B0"/>
    <trip id="232" depart="92.00" from="A0B0" to="I9J9"/>
    <trip id="233" depart="92.80" from="F8G8" to="G6G7"/>
    <trip id="234" depart="92.80" from="A0A1" to="J8J9"/>
    <trip id="235" depart="93.60" from="C4D4" to="B4A4"/>
    <trip id="236" depart="93.60" from="A0B0" to="I9J9"/>
    <trip id="237" depart="94.40" from="I6J6" to="C5D5"/>
    <trip id="238" depart="94.40" from="A0A1" to="J8J9"/>
    <trip id="239" depart="95.20" from="F8G8" to="G1G0"/>
    <trip id="240" depart="95.20" from="A0B0" to="I9J9"/>
    <trip id="241" depart="96.00" from="E2E1" to="F7G7"/>
    <trip id="242" depart="96.00" from="A0A1" to="J8J9"/>
    <trip id="243" depart="96.80" from="F2F1" to="J1J2"/>
    <trip id="244" depart="96.80" from="A0B0" to="I9J9"/>
    <trip id="245" depart="97.60" from="C2B2" to="H0H1"/>
    <trip id="246" depart="97.60" from="A0A1" to="J8J9"/>
    <trip id="247" depart="98.40" from="C5B5" to="E0D0"/>
    <trip id="248" depart="98.40" from="A0B0" to="I9J9"/>
    <trip id="249" depart="99.20" from="G6F6" to="D1C1"/>
    <trip id="250" depart="99.20" from="A0A1" to="J8J9"/>
    <trip id="251" depart="100.00" from="D2D3" to="H3I3"/>
    <trip id="252" depart="100.00" from="A0B0" to="I9J9"/>
    <trip id="253" depart="100.80" from="A9A8" to="E5F5"/>
    <trip id="254" depart="100.80" from="A0A1" to="J8J9"/>
    <trip id="255" depart="101.60" from="J9J8" to="I9J9"/>
    <trip id="256" depart="101.60" from="A0B0" to="I9J9"/>
    <trip id="257" depart="102.40" from="A9A8" to="C2D2"/>
    <trip id="258" depart="102.40" from="A0A1" to="J8J9"/>
    <trip id="259" depart="103.20" from="C7C8" to="J1J0"/>
    <trip id="260" depart="103.20" from="A0B0" to="I9J9"/>
    <trip id="261" depart="104.00" from="I6H6" to="I5J5"/>
    <trip id="262" depart="104.00" from="A0A1" to="J8J9"/>
    <trip id="263" depart="104.80" from="D7D8" to="B7B6"/>
    <trip id="264" depart="104.80" from="A0B0" to="I9J9"/>
    <trip id="265" depart="105.60" from="I1J1" to="G9F9"/>
    <trip id="266" depart="105.60" from="A0A1" to="J8J9"/>
    <trip id="267" depart="106.40" from="G0H0" to="J8I8"/>
    <trip id="268" depart="106.40" from="A0B0" to="I9J9"/>
    <trip id="269" depart="107.20" from="G4G5" to="A1A0"/>
    <trip id="270" depart="107.20" from="A0A1" to="J8J9"/>
    <trip id="271" depart="108.00" from="I0H0" to="D1C1"/>
    <trip id="272" depart="108.00" from="A0B0" to="I9J9"/>
    <trip id="273" depart="108.80" from="G5G4" to="J2J1"/>
    <trip id="274" depart="108.80" from="A0A1" to="J8J9"/>
    <trip id="275" depart="109.60" from="B5B4" to="B3B4"/>
    <trip id="276" depart="109.60" from="A0B0" to="I9J9"/>
    <trip id="277" depart="110.40" from="B2C2" to="F5E5"/>
    <trip id="278" depart="110.40" from="A0A1" to="J8J9"/>
    <trip id="279" depart="111.20" from="C8C7" to="F9G9"/>
    <trip id="280" depart="111.20" from="A0B0" to="I9J9"/>
    <trip id="281" depart="112.00" from="H0I0" to="C2B2"/>
    <trip id="282" depart="112.00" from="A0A1" to="J8J9"/>
    <trip id="283" depart="112.80" from="G2H2" to="C7C8"/>
    <trip id="284" depart="112.80" from="A0B0" to="I9J9"/>
    <trip id="285" depart="113.60" from="E8E9" to="I8H8"/>
    <trip id="286" depart="113.60" from="A0A1" to="J8J9"/>
    <trip id="287" depart="114.40" from="I2J2" to="B1B2"/>
    <trip id="288" depart="114.40" from="A0B0" to="I9J9"/>
    <trip id="289" depart="115.20" from="E2F2" to="C8C9"/>
    <trip id="290" depart="115.20" from="A0A1" to="J8J9"/>
    <trip id="291" depart="116.00" from="A0B0" to="H5H6"/>
    <trip id="292" depart="116.00" from="A0B0" to="I9J9"/>
    <trip id="293" depart="116.80" from="G3F3" to="C7C6"/>
    <trip id="294" depart="116.80" from="A0A1" to="J8J9"/>
    <trip id="295" depart="117.60" from="H2I2" to="F4G4"/>
    <trip id="296" depart="117.60" from="A0B0" to="I9J9"/>
    <trip id="297" depart="118.40" from="E3D3" to="A1A2"/>
    <trip id="298" depart="118.40" from="A0A1" to="J8J9"/>
    <trip id="299" depart="119.20" from="A9B9" to="I6H6"/>
    <trip id="300" depart="119.20" from="A0B0" to="I9J9"/>
    <trip id="301" depart="120.00" from="I8H8" to="F4F3"/>
    <trip id="302" depart="120.00" from="A0A1" to="J8J9"/>
    <trip id="303" depart="120.80" from="I1J1" to="F7F8"/>
    <trip id="304" depart="120.80" from="A0B0" to="I9J9"/>
    <trip id="305" depart="121.60" from="B6B7" to="B4B5"/>
    <trip id="306" depart="121.60" from="A0A1" to="J8J9"/>
    <trip id="307" depart="122.40" from="D1E1" to="I7I8"/>
    <trip id="308" depart="122.40" from="A0B0" to="I9J9"/>
    <trip id="309" depart="123.20" from="H7I7" to="I4H4"/>
    <trip id="310" depart="123.20" from="A0A1" to="J8J9"/>
    <trip id="311" depart="124.00" from="I7I8" to="C2C3"/>
    <trip id="312" depart="124.00" from="A0B0" to="I9J9"/>
    <trip id="313" depart="124.80" from="C6B6" to="B2B3"/>
    <trip id="314" depart="124.80" from="A0A1" to="J8J9"/>
    <trip id="315" depart="125.60" from="H6H5" to="I6I5"/>
    <trip id="316" depart="125.60" from="A0B0" to="I9J9"/>
    <trip id="317" depart="126.40" from="E1E0" to="G1G2"/>
    <trip id="318" depart="126.40" from="A0A1" to="J8J9"/>
    <trip id="319" depart="127.20" from="B7A7" to="J1I1"/>
    <trip id="320" depart="127.20" from="A0B0" to="I9J9"/>
    <trip id="321" depart="128.00" from="I4I5" to="J6J7"/>
    <trip id="322" depart="128.00" from="A0A1" to="J8J9"/>
    <trip id="323" depart="128.80" from="H9G9" to="I6H6"/>
    <trip id="324" depart="128.80" from="A0B0" to="I9J9"/>
    <trip id="325" depart="129.60" from="A3A2" to="H2H3"/>
    <trip id="326" depart="129.60" from="A0A1" to="J8J9"/>
    <trip id="327" depart="130.40" from="D4C4" to="J1J0"/>
    <trip id="328" depart="130.40" from="A0B0" to="I9J9"/>
    <trip id="329" depart="131.20" from="H8H7" to="I4I5"/>
    <trip id="330" depart="131.20" from="A0A1" to="J8J9"/>
    <trip id="331" depart="132.00" from="H9G9" to="C7D7"/>
    <trip id="332" depart="132.00" from="A0B0" to="I9J9"/>
    <trip id="333" depart="132.80" from="H7G7" to="B2C2"/>
    <trip id="334" depart="132.80" from="A0A1" to="J8J9"/>
    <trip id="335" depart="133.60" from="I5H5" to="I4H4"/>
    <trip id="336" depart="133.60" from="A0B0" to="I9J9"/>
    <trip id="337" depart="134.40" from="C3D3" to="H9I9"/>
    <trip id="338" depart="134.40" from="A0A1" to="J8J9"/>
    <trip id="339" depart="135.20" from="E6D6" to="D1D2"/>
    <trip id="340" depart="135.20" from="A0B0" to="I9J9"/>
    <trip id="341" depart="136.00" from="H7I7" to="C4B4"/>
    <trip id="342" depart="136.00" from="A0A1" to="J8J9"/>
    <trip id="343" depart="136.80" from="A3A2" to="C1B1"/>
    <trip id="344" depart="136.80" from="A0B0" to="I9J9"/>
    <trip id="345" depart="137.60" from="D3E3" to="I4I5"/>
    <trip id="346" depart="137.60" from="A0A1" to="J8J9"/>
    <trip id="347" depart="138.40" from="J5J6" to="C8D8"/>
    <trip id="348" depart="138.40" from="A0B0" to="I9J9"/>
    <trip id="349" depart="139.20" from="G3G2" to="E0E1"/>
    <trip id="350" depart="139.20" from="A0A1" to="J8J9"/>
    <trip id="351" depart="140.00" from="J7J6" to="F3F4"/>
    <trip id="352" depart="140.00" from="A0B0" to="I9J9"/>
    <trip id="353" depart="140.80" from="J2J1" to="B3B4"/>
    <trip id="354" depart="140.80" from="A0A1" to="J8J9"/>
    <trip id="355" depart="141.60" from="J6I6" to="B9B8"/>
    <trip id="356" depart="141.60" from="A0B0" to="I9J9"/>
    <trip id="357" depart="142.40" from="J5I5" to="C7C8"/>
    <trip id="358" depart="142.40" from="A0A1" to="J8J9"/>
    <trip id="359" depart="143.20" from="B3A3" to="E3F3"/>
    <trip id="360" depart="143.20" from="A0B0" to="I9J9"/>
    <trip id="361" depart="144.00" from="H1I1" to="D2D1"/>
    <trip id="362" depart="144.00" from="A0A1" to="J8J9"/>
    <trip id="363" depart="144.80" from="G0F0" to="F1F0"/>
    <trip id="364" depart="144.80" from="A0B0" to="I9J9"/>
    <trip id="365" depart="145.60" from="D8E8" to="F7E7"/>
    <trip id="366" depart="145.60" from="A0A1" to="J8J9"/>
    <trip id="367" depart="146.40" from="C6C7" to="G9H9"/>
    <trip id="368" depart="146.40" from="A0B0" to="I9J9"/>
    <trip id="369" depart="147.20" from="A0A1" to="J0J1"/>
    <trip id="370" depart="147.20" from="A0A1" to="J8J9"/>
    <trip id="371" depart="148.00" from="F3F4" to="H0I0"/>
    <trip id="372" depart="148.00" from="A0B0" to="I9J9"/>
    <trip id="373" depart="148.80" from="H3G3" to="G6F6"/>
    <trip id="374" depart="148.80" from="A0A1" to="J8J9"/>
    <trip id="375" depart="149.60" from="D7C7" to="A8B8"/>
    <trip id="376" depart="149.60" from="A0B0" to="I9J9"/>
    <trip id="377" depart="150.40" from="G5G6" to="D3E3"/>
    <trip id="378" depart="150.40" from="A0A1" to="J8J9"/>
    <trip id="379" depart="151.20" from="D2D3" to="I3H3"/>
    <trip id="380" depart="151.20" from="A0B0" to="I9J9"/>
    <trip id="381" depart="152.00" from="H1G1" to="D1D0"/>
    <trip id="382" depart="152.00" from="A0A1" to="J8J9"/>
    <trip id="383" depart="152.80" from="D2C2" to="E1E2"/>
    <trip id="384" depart="152.80" from="A0B0" to="I9J9"/>
    <trip id="385" depart="153.60" from="E0F0" to="D0E0"/>
    <trip id="386" depart="153.60" from="A0A1" to="J8J9"/>
    <trip id="387" depart="154.40" from="B4B5" to="E2E3"/>
    <trip id="388" depart="154.40" from="A0B0" to="I9J9"/>
    <trip id="389" depart="155.20" from="J2J1" to="G6G7"/>
    <trip id="390" depart="155.20" from="A0A1" to="J8J9"/>
    <trip id="391" depart="156.00" from="I8H8" to="G1F1"/>
    <trip id="392" depart="156.00" from="A0B0" to="I9J9"/>
    <trip id="393" depart="156.80" from="D1D0" to="F4F5"/>
    <trip id="394" depart="156.80" from="A0A1" to="J8J9"/>
    <trip id="395" depart="157.60" from="A0A1" to="C9D9"/>
    <trip id="396" depart="157.60" from="A0B0" to="I9J9"/>
    <trip id="397" depart="158.40" from="E3E2" to="F7F6"/>
    <trip id="398" depart="158.40" from="A0A1" to="J8J9"/>
    <trip id="399" depart="159.20" from="G4G5" to="E6E7"/>
    <trip id="400" depart="159.20" from="A0B0" to="I9J9"/>
    <trip id="401" depart="160.00" from="E4E5" to="C2D2"/>
    <trip id="402" depart="160.00" from="A0A1" to="J8J9"/>
    <trip id="403" depart="160.80" from="E7E6" to="I7J7"/>
    <trip id="404" depart="160.80" from="A0B0" to="I9J9"/>
    <trip id="405" depart="161.60" from="H7I7" to="B8B9"/>
    <trip id="406" depart="161.60" from="A0A1" to="J8J9"/>
    <trip id="407" depart="162.40" from="B0C0" to="F1F2"/>
    <trip id="408" depart="162.40" from="A0B0" to="I9J9"/>
    <trip id="409" depart="163.20" from="G2G3" to="D4D3"/>
    <trip id="410" depart="163.20" from="A0A1" to="J8J9"/>
    <trip id="411" depart="164.00" from="I0H0" to="H3I3"/>
    <trip id="412" depart="164.00" from="A0B0" to="I9J9"/>
    <trip id="413" depart="164.80" from="G6G5" to="C3D3"/>
    <trip id="414" depart="164.80" from="A0A1" to="J8J9"/>
    <trip id="415" depart="165.60" from="C1C2" to="A3A2"/>
    <trip id="416" depart="165.60" from="A0B0" to="I9J9"/>
    <trip id="417" depart="166.40" from="C5D5" to="E7E8"/>
    <trip id="418" depart="166.40" from="A0A1" to="J8J9"/>
    <trip id="419" depart="167.20" from="I3H3" to="A9A8"/>
    <trip id="420" depart="167.20" from="A0B0" to="I9J9"/>
    <trip id="421" depart="168.00" from="E2D2" to="G2G1"/>
    <trip id="422" depart="168.00" from="A0A1" to="J8J9"/>
    <trip id="423" depart="168.80" from="C1B1" to="G8G7"/>
    <trip id="424" depart="168.80" from="A0B0" to="I9J9"/>
    <trip id="425" depart="169.60" from="E9D9" to="C5C6"/>
    <trip id="426" depart="169.60" from="A0A1" to="J8J9"/>
    <trip id="427" depart="170.40" from="G4H4" to="A0B0"/>
    <trip id="428" depart="170.40" from="A0B0" to="I9J9"/>
    <trip id="429" depart="171.20" from="H3I3" to="H5H6"/>
    <trip id="430" depart="171.20" from="A0A1" to="J8J9"/>
    <trip id="431" depart="172.00" from="B2C2" to="E3D3"/>
    <trip id="432" depart="172.00" from="A0B0" to="I9J9"/>
    <trip id="433" depart="172.80" from="B9A9" to="J4J3"/>
    <trip id="434" depart="172.80" from="A0A1" to="J8J9"/>
    <trip id="435" depart="173.60" from="F1G1" to="A6A7"/>
    <trip id="436" depart="173.60" from="A0B0" to="I9J9"/>
    <trip id="437" depart="174.40" from="C6B6" to="I3H3"/>
    <trip id="438" depart="174.40" from="A0A1" to="J8J9"/>
    <trip id="439" depart="175.20" from="E5F5" to="H8H7"/>
    <trip id="440" depart="175.20" from="A0B0" to="I9J9"/>
    <trip id="441" depart="176.00" from="G5H5" to="J8I8"/>
    <trip id="442" depart="176.00" from="A0A1" to="J8J9"/>
    <trip id="443" depart="176.80" from="F8G8" to="J3J4"/>
    <trip id="444" depart="176.80" from="A0B0" to="I9J9"/>
    <trip id="445" depart="177.60" from="I6J6" to="G0H0"/>
    <trip id="446" depart="177.60" from="A0A1" to="J8J9"/>
    <trip id="447" depart="178.40" from="H0I0" to="F0F1"/>
    <trip id="448" depart="178.40" from="A0B0" to="I9J9"/>
    <trip id="449" depart="179.20" from="I1I2" to="F4F5"/>
    <trip id="450" depart="179.20" from="A0A1" to="J8J9"/>
    <trip id="451" depart="180.00" from="I7I6" to="H3G3"/>
    <trip id="452" depart="180.00" from="A0B0" to="I9J9"/>
    <trip id="453" depart="180.80" from="E7E6" to="C7B7"/>
    <trip id="454" depart="180.80" from="A0A1" to="J8J9"/>
    <trip id="455" depart="181.60" from="C6B6" to="G3F3"/>
    <trip id="456" depart="181.60" from="A0B0" to="I9J9"/>
    <trip id="457" depart="182.40" from="H5G5" to="F2E2"/>
    <trip id="458" depart="182.40" from="A0A1" to="J8J9"/>
    <trip id="459" depart="183.20" from="G2F2" to="C8C7"/>
    <trip id="460" depart="183.20" from="A0B0" to="I9J9"/>
    <trip id="461" depart="184.00" from="A9B9" to="C9C8"/>
    <trip id="462" depart="184.00" from="A0A1" to="J8J9"/>
    <trip id="463" depart="184.80" from="C8B8" to="D3C3"/>
    <trip id="464" depart="184.80" from="A0B0" to="I9J9"/>
    <trip id="465" depart="185.60" from="F3G3" to="B5B6"/>
    <trip id="466" depart="185.60" from="A0A1" to="J8J9"/>
    <trip id="467" depart="186.40" from="C4C5" to="G8F8"/>
    <trip id="468" depart="186.40" from="A0B0" to="I9J9"/>
    <trip id="469" depart="187.20" from="G9G8" to="A8A7"/>
    <trip id="470" depart="187.20" from="A0A1" to="J8J9"/>
    <trip id="471" depart="188.00" from="E1E0" to="F4E4"/>
    <trip id="472" depart="188.00" from="A0B0" to="I9J9"/>
    <trip id="473" depart="188.80" from="E2D2" to="C2C1"/>
    <trip id="474" depart="188.80" from="A0A1" to="J8J9"/>
    <trip id="475" depart="189.60" from="E2E3" to="I8H8"/>
    <trip id="476" depart="189.60" from="A0B0" to="I9J9"/>
    <trip id="477" depart="190.40" from="F7G7" to="G8G7"/>
    <trip id="478" depart="190.40" from="A0A1" to="J8J9"/>
    <trip id="479" depart="191.20" from="I3J3" to="H5G5"/>
    <trip id="480" depart="191.20" from="A0B0" to="I9J9"/>
    <trip id="481" depart="192.00" from="D8D7" to="A1A0"/>
    <trip id="482" depart="192.00" from="A0A1" to="J8J9"/>
    <trip id="483" depart="192.80" from="D5E5" to="H4G4"/>
    <trip id="484" depart="192.80" from="A0B0" to="I9J9"/>
    <trip id="485" depart="193.60" from="I3I4" to="J4I4"/>
    <trip id="486" depart="193.60" from="A0A1" to="J8J9"/>
    <trip id="487" depart="194.40" from="E2E1" to="H3H4"/>
    <trip id="488" depart="194.40" from="A0B0" to="I9J9"/>
    <trip id="489" depart="195.20" from="F4F3" to="F9G9"/>
    <trip id="490" depart="195.20" from="A0A1" to="J8J9"/>
    <trip id="491" depart="196.00" from="C3C4" to="C3C2"/>
    <trip id="492" depart="196.00" from="A0B0" to="I9J9"/>
    <trip id="493" depart="196.80" from="E3F3" to="A3B3"/>
    <trip id="494" depart="196.80" from="A0A1" to="J8J9"/>
    <trip id="495" depart="197.60" from="D4D5" to="G6H6"/>
    <trip id="496" depart="197.60" from="A0B0" to="I9J9"/>
    <trip id="497" depart="198.40" from="E1D1" to="B8A8"/>
    <trip id="498" depart="198.40" from="A0A1" to="J8J9"/>
    <trip id="499" depart="199.20" from="E6F6" to="B4B5"/>
    <trip id="500" depart="199.20" from="A0B0" to="I9J9"/>
    <trip id="501" depart="200.00" from="G1H1" to="A3A4"/>
    <trip id="502" depart="200.00" from="A0A1" to="J8J9"/>
    <trip id="503" depart="200.80" from="D9E9" to="F6E6"/>
    <trip id="504" depart="200.80" from="A0B0" to="I9J9"/>
    <trip id="505" depart="201.60" from="A3A4" to="G3G4"/>
    <trip id="506" depart="201.60" from="A0A1" to="J8J9"/>
    <trip id="507" depart="202.40" from="B5B4" to="E6E5"/>
    <trip id="508" depart="202.40" from="A0B0" to="I9J9"/>
    <trip id="509" depart="203.20" from="A6A7" to="D8D7"/>
    <trip id="510" depart="203.20" from="A0A1" to="J8J9"/>