<?xml version="1.0" encoding="UTF-8"?>

<!-- generated on 2025-07-03 12:14:52 by Eclipse SUMO netconvert Version 1.23.1
<netconvertConfiguration xmlns:xsi="http://www.w3.org/2001/XMLSchema-instance" xsi:noNamespaceSchemaLocation="http://sumo.dlr.de/xsd/netconvertConfiguration.xsd">

    <input>
        <sumo-net-file value="grid.net.xml"/>
    </input>

    <output>
        <plain-output-prefix value="grid"/>
    </output>

    <processing>
        <geometry.min-radius.fix.railways value="false"/>
        <geometry.avoid-overlap value="false"/>
        <geometry.max-grade.fix value="false"/>
        <offset.disable-normalization value="true"/>
        <lefthand value="0"/>
    </processing>

    <junctions>
        <no-turnarounds value="true"/>
        <junctions.corner-detail value="5"/>
        <junctions.limit-turn-speed value="5.50"/>
        <rectangular-lane-cut value="0"/>
    </junctions>

    <pedestrian>
        <walkingareas value="0"/>
    </pedestrian>

</netconvertConfiguration>
-->

<edges version="1.20" xmlns:xsi="http://www.w3.org/2001/XMLSchema-instance" xsi:noNamespaceSchemaLocation="http://sumo.dlr.de/xsd/edges_file.xsd">
    <edge id="A0A1" from="A0" to="A1" priority="-1" numLanes="1" speed="13.89"/>
    <edge id="A0B0" from="A0" to="B0" priority="-1" numLanes="1" speed="13.89"/>
    <edge id="A1A0" from="A1" to="A0" priority="-1" numLanes="1" speed="13.89"/>
    <edge id="A1A2" from="A1" to="A2" priority="-1" numLanes="1" speed="13.89"/>
    <edge id="A1B1" from="A1" to="B1" priority="-1" numLanes="1" speed="13.89"/>
    <edge id="A2A1" from="A2" to="A1" priority="-1" numLanes="1" speed="13.89"/>
    <edge id="A2A3" from="A2" to="A3" priority="-1" numLanes="1" speed="13.89"/>
    <edge id="A2B2" from="A2" to="B2" priority="-1" numLanes="1" speed="13.89"/>
    <edge id="A3A2" from="A3" to="A2" priority="-1" numLanes="1" speed="13.89"/>
    <edge id="A3A4" from="A3" to="A4" priority="-1" numLanes="1" speed="13.89"/>
    <edge id="A3B3" from="A3" to="B3" priority="-1" numLanes="1" speed="13.89"/>
    <edge id="A4A3" from="A4" to="A3" priority="-1" numLanes="1" speed="13.89"/>
    <edge id="A4A5" from="A4" to="A5" priority="-1" numLanes="1" speed="13.89"/>
    <edge id="A4B4" from="A4" to="B4" priority="-1" numLanes="1" speed="13.89"/>
    <edge id="A5A4" from="A5" to="A4" priority="-1" numLanes="1" speed="13.89"/>
    <edge id="A5A6" from="A5" to="A6" priority="-1" numLanes="1" speed="13.89"/>
    <edge id="A5B5" from="A5" to="B5" priority="-1" numLanes="1" speed="13.89"/>
    <edge id="A6A5" from="A6" to="A5" priority="-1" numLanes="1" speed="13.89"/>
    <edge id="A6A7" from="A6" to="A7" priority="-1" numLanes="1" speed="13.89"/>
    <edge id="A6B6" from="A6" to="B6" priority="-1" numLanes="1" speed="13.89"/>
    <edge id="A7A6" from="A7" to="A6" priority="-1" numLanes="1" speed="13.89"/>
    <edge id="A7A8" from="A7" to="A8" priority="-1" numLanes="1" speed="13.89"/>
    <edge id="A7B7" from="A7" to="B7" priority="-1" numLanes="1" speed="13.89"/>
    <edge id="A8A7" from="A8" to="A7" priority="-1" numLanes="1" speed="13.89"/>
    <edge id="A8A9" from="A8" to="A9" priority="-1" numLanes="1" speed="13.89"/>
    <edge id="A8B8" from="A8" to="B8" priority="-1" numLanes="1" speed="13.89"/>
    <edge id="A9A8" from="A9" to="A8" priority="-1" numLanes="1" speed="13.89"/>
    <edge id="A9B9" from="A9" to="B9" priority="-1" numLanes="1" speed="13.89"/>
    <edge id="B0A0" from="B0" to="A0" priority="-1" numLanes="1" speed="13.89"/>
    <edge id="B0B1" from="B0" to="B1" priority="-1" numLanes="1" speed="13.89"/>
    <edge id="B0C0" from="B0" to="C0" priority="-1" numLanes="1" speed="13.89"/>
    <edge id="B1A1" from="B1" to="A1" priority="-1" numLanes="1" speed="13.89"/>
    <edge id="B1B0" from="B1" to="B0" priority="-1" numLanes="1" speed="13.89"/>
    <edge id="B1B2" from="B1" to="B2" priority="-1" numLanes="1" speed="13.89"/>
    <edge id="B1C1" from="B1" to="C1" priority="-1" numLanes="1" speed="13.89"/>
    <edge id="B2A2" from="B2" to="A2" priority="-1" numLanes="1" speed="13.89"/>
    <edge id="B2B1" from="B2" to="B1" priority="-1" numLanes="1" speed="13.89"/>
    <edge id="B2B3" from="B2" to="B3" priority="-1" numLanes="1" speed="13.89"/>
    <edge id="B2C2" from="B2" to="C2" priority="-1" numLanes="1" speed="13.89"/>
    <edge id="B3A3" from="B3" to="A3" priority="-1" numLanes="1" speed="13.89"/>
    <edge id="B3B2" from="B3" to="B2" priority="-1" numLanes="1" speed="13.89"/>
    <edge id="B3B4" from="B3" to="B4" priority="-1" numLanes="1" speed="13.89"/>
    <edge id="B3C3" from="B3" to="C3" priority="-1" numLanes="1" speed="13.89"/>
    <edge id="B4A4" from="B4" to="A4" priority="-1" numLanes="1" speed="13.89"/>
    <edge id="B4B3" from="B4" to="B3" priority="-1" numLanes="1" speed="13.89"/>
    <edge id="B4B5" from="B4" to="B5" priority="-1" numLanes="1" speed="13.89"/>
    <edge id="B4C4" from="B4" to="C4" priority="-1" numLanes="1" speed="13.89"/>
    <edge id="B5A5" from="B5" to="A5" priority="-1" numLanes="1" speed="13.89"/>
    <edge id="B5B4" from="B5" to="B4" priority="-1" numLanes="1" speed="13.89"/>
    <edge id="B5B6" from="B5" to="B6" priority="-1" numLanes="1" speed="13.89"/>
    <edge id="B5C5" from="B5" to="C5" priority="-1" numLanes="1" speed="13.89"/>
    <edge id="B6A6" from="B6" to="A6" priority="-1" numLanes="1" speed="13.89"/>
    <edge id="B6B5" from="B6" to="B5" priority="-1" numLanes="1" speed="13.89"/>
    <edge id="B6B7" from="B6" to="B7" priority="-1" numLanes="1" speed="13.89"/>
    <edge id="B6C6" from="B6" to="C6" priority="-1" numLanes="1" speed="13.89"/>
    <edge id="B7A7" from="B7" to="A7" priority="-1" numLanes="1" speed="13.89"/>
    <edge id="B7B6" from="B7" to="B6" priority="-1" numLanes="1" speed="13.89"/>
    <edge id="B7B8" from="B7" to="B8" priority="-1" numLanes="1" speed="13.89"/>
    <edge id="B7C7" from="B7" to="C7" priority="-1" numLanes="1" speed="13.89"/>
    <edge id="B8A8" from="B8" to="A8" priority="-1" numLanes="1" speed="13.89"/>
    <edge id="B8B7" from="B8" to="B7" priority="-1" numLanes="1" speed="13.89"/>
    <edge id="B8B9" from="B8" to="B9" priority="-1" numLanes="1" speed="13.89"/>
    <edge id="B8C8" from="B8" to="C8" priority="-1" numLanes="1" speed="13.89"/>
    <edge id="B9A9" from="B9" to="A9" priority="-1" numLanes="1" speed="13.89"/>
    <edge id="B9B8" from="B9" to="B8" priority="-1" numLanes="1" speed="13.89"/>
    <edge id="B9C9" from="B9" to="C9" priority="-1" numLanes="1" speed="13.89"/>
    <edge id="C0B0" from="C0" to="B0" priority="-1" numLanes="1" speed="13.89"/>
    <edge id="C0C1" from="C0" to="C1" priority="-1" numLanes="1" speed="13.89"/>
    <edge id="C0D0" from="C0" to="D0" priority="-1" numLanes="1" speed="13.89"/>
    <edge id="C1B1" from="C1" to="B1" priority="-1" numLanes="1" speed="13.89"/>
    <edge id="C1C0" from="C1" to="C0" priority="-1" numLanes="1" speed="13.89"/>
    <edge id="C1C2" from="C1" to="C2" priority="-1" numLanes="1" speed="13.89"/>
    <edge id="C1D1" from="C1" to="D1" priority="-1" numLanes="1" speed="13.89"/>
    <edge id="C2B2" from="C2" to="B2" priority="-1" numLanes="1" speed="13.89"/>
    <edge id="C2C1" from="C2" to="C1" priority="-1" numLanes="1" speed="13.89"/>
    <edge id="C2C3" from="C2" to="C3" priority="-1" numLanes="1" speed="13.89"/>
    <edge id="C2D2" from="C2" to="D2" priority="-1" numLanes="1" speed="13.89"/>
    <edge id="C3B3" from="C3" to="B3" priority="-1" numLanes="1" speed="13.89"/>
    <edge id="C3C2" from="C3" to="C2" priority="-1" numLanes="1" speed="13.89"/>
    <edge id="C3C4" from="C3" to="C4" priority="-1" numLanes="1" speed="13.89"/>
    <edge id="C3D3" from="C3" to="D3" priority="-1" numLanes="1" speed="13.89"/>
    <edge id="C4B4" from="C4" to="B4" priority="-1" numLanes="1" speed="13.89"/>
    <edge id="C4C3" from="C4" to="C3" priority="-1" numLanes="1" speed="13.89"/>
    <edge id="C4C5" from="C4" to="C5" priority="-1" numLanes="1" speed="13.89"/>
    <edge id="C4D4" from="C4" to="D4" priority="-1" numLanes="1" speed="13.89"/>
    <edge id="C5B5" from="C5" to="B5" priority="-1" numLanes="1" speed="13.89"/>
    <edge id="C5C4" from="C5" to="C4" priority="-1" numLanes="1" speed="13.89"/>
    <edge id="C5C6" from="C5" to="C6" priority="-1" numLanes="1" speed="13.89"/>
    <edge id="C5D5" from="C5" to="D5" priority="-1" numLanes="1" speed="13.89"/>
    <edge id="C6B6" from="C6" to="B6" priority="-1" numLanes="1" speed="13.89"/>
    <edge id="C6C5" from="C6" to="C5" priority="-1" numLanes="1" speed="13.89"/>
    <edge id="C6C7" from="C6" to="C7" priority="-1" numLanes="1" speed="13.89"/>
    <edge id="C6D6" from="C6" to="D6" priority="-1" numLanes="1" speed="13.89"/>
    <edge id="C7B7" from="C7" to="B7" priority="-1" numLanes="1" speed="13.89"/>
    <edge id="C7C6" from="C7" to="C6" priority="-1" numLanes="1" speed="13.89"/>
    <edge id="C7C8" from="C7" to="C8" priority="-1" numLanes="1" speed="13.89"/>
    <edge id="C7D7" from="C7" to="D7" priority="-1" numLanes="1" speed="13.89"/>
    <edge id="C8B8" from="C8" to="B8" priority="-1" numLanes="1" speed="13.89"/>
    <edge id="C8C7" from="C8" to="C7" priority="-1" numLanes="1" speed="13.89"/>
    <edge id="C8C9" from="C8" to="C9" priority="-1" numLanes="1" speed="13.89"/>
    <edge id="C8D8" from="C8" to="D8" priority="-1" numLanes="1" speed="13.89"/>
    <edge id="C9B9" from="C9" to="B9" priority="-1" numLanes="1" speed="13.89"/>
    <edge id="C9C8" from="C9" to="C8" priority="-1" numLanes="1" speed="13.89"/>
    <edge id="C9D9" from="C9" to="D9" priority="-1" numLanes="1" speed="13.89"/>
    <edge id="D0C0" from="D0" to="C0" priority="-1" numLanes="1" speed="13.89"/>
    <edge id="D0D1" from="D0" to="D1" priority="-1" numLanes="1" speed="13.89"/>
    <edge id="D0E0" from="D0" to="E0" priority="-1" numLanes="1" speed="13.89"/>
    <edge id="D1C1" from="D1" to="C1" priority="-1" numLanes="1" speed="13.89"/>
    <edge id="D1D0" from="D1" to="D0" priority="-1" numLanes="1" speed="13.89"/>
    <edge id="D1D2" from="D1" to="D2" priority="-1" numLanes="1" speed="13.89"/>
    <edge id="D1E1" from="D1" to="E1" priority="-1" numLanes="1" speed="13.89"/>
    <edge id="D2C2" from="D2" to="C2" priority="-1" numLanes="1" speed="13.89"/>
    <edge id="D2D1" from="D2" to="D1" priority="-1" numLanes="1" speed="13.89"/>
    <edge id="D2D3" from="D2" to="D3" priority="-1" numLanes="1" speed="13.89"/>
    <edge id="D2E2" from="D2" to="E2" priority="-1" numLanes="1" speed="13.89"/>
    <edge id="D3C3" from="D3" to="C3" priority="-1" numLanes="1" speed="13.89"/>
    <edge id="D3D2" from="D3" to="D2" priority="-1" numLanes="1" speed="13.89"/>
    <edge id="D3D4" from="D3" to="D4" priority="-1" numLanes="1" speed="13.89"/>
    <edge id="D3E3" from="D3" to="E3" priority="-1" numLanes="1" speed="13.89"/>
    <edge id="D4C4" from="D4" to="C4" priority="-1" numLanes="1" speed="13.89"/>
    <edge id="D4D3" from="D4" to="D3" priority="-1" numLanes="1" speed="13.89"/>
    <edge id="D4D5" from="D4" to="D5" priority="-1" numLanes="1" speed="13.89"/>
    <edge id="D4E4" from="D4" to="E4" priority="-1" numLanes="1" speed="13.89"/>
    <edge id="D5C5" from="D5" to="C5" priority="-1" numLanes="1" speed="13.89"/>
    <edge id="D5D4" from="D5" to="D4" priority="-1" numLanes="1" speed="13.89"/>
    <edge id="D5D6" from="D5" to="D6" priority="-1" numLanes="1" speed="13.89"/>
    <edge id="D5E5" from="D5" to="E5" priority="-1" numLanes="1" speed="13.89"/>
    <edge id="D6C6" from="D6" to="C6" priority="-1" numLanes="1" speed="13.89"/>
    <edge id="D6D5" from="D6" to="D5" priority="-1" numLanes="1" speed="13.89"/>
    <edge id="D6D7" from="D6" to="D7" priority="-1" numLanes="1" speed="13.89"/>
    <edge id="D6E6" from="D6" to="E6" priority="-1" numLanes="1" speed="13.89"/>
    <edge id="D7C7" from="D7" to="C7" priority="-1" numLanes="1" speed="13.89"/>
    <edge id="D7D6" from="D7" to="D6" priority="-1" numLanes="1" speed="13.89"/>
    <edge id="D7D8" from="D7" to="D8" priority="-1" numLanes="1" speed="13.89"/>
    <edge id="D7E7" from="D7" to="E7" priority="-1" numLanes="1" speed="13.89"/>
    <edge id="D8C8" from="D8" to="C8" priority="-1" numLanes="1" speed="13.89"/>
    <edge id="D8D7" from="D8" to="D7" priority="-1" numLanes="1" speed="13.89"/>
    <edge id="D8D9" from="D8" to="D9" priority="-1" numLanes="1" speed="13.89"/>
    <edge id="D8E8" from="D8" to="E8" priority="-1" numLanes="1" speed="13.89"/>
    <edge id="D9C9" from="D9" to="C9" priority="-1" numLanes="1" speed="13.89"/>
    <edge id="D9D8" from="D9" to="D8" priority="-1" numLanes="1" speed="13.89"/>
    <edge id="D9E9" from="D9" to="E9" priority="-1" numLanes="1" speed="13.89"/>
    <edge id="E0D0" from="E0" to="D0" priority="-1" numLanes="1" speed="13.89"/>
    <edge id="E0E1" from="E0" to="E1" priority="-1" numLanes="1" speed="13.89"/>
    <edge id="E0F0" from="E0" to="F0" priority="-1" numLanes="1" speed="13.89"/>
    <edge id="E1D1" from="E1" to="D1" priority="-1" numLanes="1" speed="13.89"/>
    <edge id="E1E0" from="E1" to="E0" priority="-1" numLanes="1" speed="13.89"/>
    <edge id="E1E2" from="E1" to="E2" priority="-1" numLanes="1" speed="13.89"/>
    <edge id="E1F1" from="E1" to="F1" priority="-1" numLanes="1" speed="13.89"/>
    <edge id="E2D2" from="E2" to="D2" priority="-1" numLanes="1" speed="13.89"/>
    <edge id="E2E1" from="E2" to="E1" priority="-1" numLanes="1" speed="13.89"/>
    <edge id="E2E3" from="E2" to="E3" priority="-1" numLanes="1" speed="13.89"/>
    <edge id="E2F2" from="E2" to="F2" priority="-1" numLanes="1" speed="13.89"/>
    <edge id="E3D3" from="E3" to="D3" priority="-1" numLanes="1" speed="13.89"/>
    <edge id="E3E2" from="E3" to="E2" priority="-1" numLanes="1" speed="13.89"/>
    <edge id="E3E4" from="E3" to="E4" priority="-1" numLanes="1" speed="13.89"/>
    <edge id="E3F3" from="E3" to="F3" priority="-1" numLanes="1" speed="13.89"/>
    <edge id="E4D4" from="E4" to="D4" priority="-1" numLanes="1" speed="13.89"/>
    <edge id="E4E3" from="E4" to="E3" priority="-1" numLanes="1" speed="13.89"/>
    <edge id="E4E5" from="E4" to="E5" priority="-1" numLanes="1" speed="13.89"/>
    <edge id="E4F4" from="E4" to="F4" priority="-1" numLanes="1" speed="13.89"/>
    <edge id="E5D5" from="E5" to="D5" priority="-1" numLanes="1" speed="13.89"/>
    <edge id="E5E4" from="E5" to="E4" priority="-1" numLanes="1" speed="13.89"/>
    <edge id="E5E6" from="E5" to="E6" priority="-1" numLanes="1" speed="13.89"/>
    <edge id="E5F5" from="E5" to="F5" priority="-1" numLanes="1" speed="13.89"/>
    <edge id="E6D6" from="E6" to="D6" priority="-1" numLanes="1" speed="13.89"/>
    <edge id="E6E5" from="E6" to="E5" priority="-1" numLanes="1" speed="13.89"/>
    <edge id="E6E7" from="E6" to="E7" priority="-1" numLanes="1" speed="13.89"/>
    <edge id="E6F6" from="E6" to="F6" priority="-1" numLanes="1" speed="13.89"/>
    <edge id="E7D7" from="E7" to="D7" priority="-1" numLanes="1" speed="13.89"/>
    <edge id="E7E6" from="E7" to="E6" priority="-1" numLanes="1" speed="13.89"/>
    <edge id="E7E8" from="E7" to="E8" priority="-1" numLanes="1" speed="13.89"/>
    <edge id="E7F7" from="E7" to="F7" priority="-1" numLanes="1" speed="13.89"/>
    <edge id="E8D8" from="E8" to="D8" priority="-1" numLanes="1" speed="13.89"/>
    <edge id="E8E7" from="E8" to="E7" priority="-1" numLanes="1" speed="13.89"/>
    <edge id="E8E9" from="E8" to="E9" priority="-1" numLanes="1" speed="13.89"/>
    <edge id="E8F8" from="E8" to="F8" priority="-1" numLanes="1" speed="13.89"/>
    <edge id="E9D9" from="E9" to="D9" priority="-1" numLanes="1" speed="13.89"/>
    <edge id="E9E8" from="E9" to="E8" priority="-1" numLanes="1" speed="13.89"/>
    <edge id="E9F9" from="E9" to="F9" priority="-1" numLanes="1" speed="13.89"/>
    <edge id="F0E0" from="F0" to="E0" priority="-1" numLanes="1" speed="13.89"/>
    <edge id="F0F1" from="F0" to="F1" priority="-1" numLanes="1" speed="13.89"/>
    <edge id="F0G0" from="F0" to="G0" priority="-1" numLanes="1" speed="13.89"/>
    <edge id="F1E1" from="F1" to="E1" priority="-1" numLanes="1" speed="13.89"/>
    <edge id="F1F0" from="F1" to="F0" priority="-1" numLanes="1" speed="13.89"/>
    <edge id="F1F2" from="F1" to="F2" priority="-1" numLanes="1" speed="13.89"/>
    <edge id="F1G1" from="F1" to="G1" priority="-1" numLanes="1" speed="13.89"/>
    <edge id="F2E2" from="F2" to="E2" priority="-1" numLanes="1" speed="13.89"/>
    <edge id="F2F1" from="F2" to="F1" priority="-1" numLanes="1" speed="13.89"/>
    <edge id="F2F3" from="F2" to="F3" priority="-1" numLanes="1" speed="13.89"/>
    <edge id="F2G2" from="F2" to="G2" priority="-1" numLanes="1" speed="13.89"/>
    <edge id="F3E3" from="F3" to="E3" priority="-1" numLanes="1" speed="13.89"/>
    <edge id="F3F2" from="F3" to="F2" priority="-1" numLanes="1" speed="13.89"/>
    <edge id="F3F4" from="F3" to="F4" priority="-1" numLanes="1" speed="13.89"/>
    <edge id="F3G3" from="F3" to="G3" priority="-1" numLanes="1" speed="13.89"/>
    <edge id="F4E4" from="F4" to="E4" priority="-1" numLanes="1" speed="13.89"/>
    <edge id="F4F3" from="F4" to="F3" priority="-1" numLanes="1" speed="13.89"/>
    <edge id="F4F5" from="F4" to="F5" priority="-1" numLanes="1" speed="13.89"/>
    <edge id="F4G4" from="F4" to="G4" priority="-1" numLanes="1" speed="13.89"/>
    <edge id="F5E5" from="F5" to="E5" priority="-1" numLanes="1" speed="13.89"/>
    <edge id="F5F4" from="F5" to="F4" priority="-1" numLanes="1" speed="13.89"/>
    <edge id="F5F6" from="F5" to="F6" priority="-1" numLanes="1" speed="13.89"/>
    <edge id="F5G5" from="F5" to="G5" priority="-1" numLanes="1" speed="13.89"/>
    <edge id="F6E6" from="F6" to="E6" priority="-1" numLanes="1" speed="13.89"/>
    <edge id="F6F5" from="F6" to="F5" priority="-1" numLanes="1" speed="13.89"/>
    <edge id="F6F7" from="F6" to="F7" priority="-1" numLanes="1" speed="13.89"/>
    <edge id="F6G6" from="F6" to="G6" priority="-1" numLanes="1" speed="13.89"/>
    <edge id="F7E7" from="F7" to="E7" priority="-1" numLanes="1" speed="13.89"/>
    <edge id="F7F6" from="F7" to="F6" priority="-1" numLanes="1" speed="13.89"/>
    <edge id="F7F8" from="F7" to="F8" priority="-1" numLanes="1" speed="13.89"/>
    <edge id="F7G7" from="F7" to="G7" priority="-1" numLanes="1" speed="13.89"/>
    <edge id="F8E8" from="F8" to="E8" priority="-1" numLanes="1" speed="13.89"/>
    <edge id="F8F7" from="F8" to="F7" priority="-1" numLanes="1" speed="13.89"/>
    <edge id="F8F9" from="F8" to="F9" priority="-1" numLanes="1" speed="13.89"/>
    <edge id="F8G8" from="F8" to="G8" priority="-1" numLanes="1" speed="13.89"/>
    <edge id="F9E9" from="F9" to="E9" priority="-1" numLanes="1" speed="13.89"/>
    <edge id="F9F8" from="F9" to="F8" priority="-1" numLanes="1" speed="13.89"/>
    <edge id="F9G9" from="F9" to="G9" priority="-1" numLanes="1" speed="13.89"/>
    <edge id="G0F0" from="G0" to="F0" priority="-1" numLanes="1" speed="13.89"/>
    <edge id="G0G1" from="G0" to="G1" priority="-1" numLanes="1" speed="13.89"/>
    <edge id="G0H0" from="G0" to="H0" priority="-1" numLanes="1" speed="13.89"/>
    <edge id="G1F1" from="G1" to="F1" priority="-1" numLanes="1" speed="13.89"/>
    <edge id="G1G0" from="G1" to="G0" priority="-1" numLanes="1" speed="13.89"/>
    <edge id="G1G2" from="G1" to="G2" priority="-1" numLanes="1" speed="13.89"/>
    <edge id="G1H1" from="G1" to="H1" priority="-1" numLanes="1" speed="13.89"/>
    <edge id="G2F2" from="G2" to="F2" priority="-1" numLanes="1" speed="13.89"/>
    <edge id="G2G1" from="G2" to="G1" priority="-1" numLanes="1" speed="13.89"/>
    <edge id="G2G3" from="G2" to="G3" priority="-1" numLanes="1" speed="13.89"/>
    <edge id="G2H2" from="G2" to="H2" priority="-1" numLanes="1" speed="13.89"/>
    <edge id="G3F3" from="G3" to="F3" priority="-1" numLanes="1" speed="13.89"/>
    <edge id="G3G2" from="G3" to="G2" priority="-1" numLanes="1" speed="13.89"/>
    <edge id="G3G4" from="G3" to="G4" priority="-1" numLanes="1" speed="13.89"/>
    <edge id="G3H3" from="G3" to="H3" priority="-1" numLanes="1" speed="13.89"/>
    <edge id="G4F4" from="G4" to="F4" priority="-1" numLanes="1" speed="13.89"/>
    <edge id="G4G3" from="G4" to="G3" priority="-1" numLanes="1" speed="13.89"/>
    <edge id="G4G5" from="G4" to="G5" priority="-1" numLanes="1" speed="13.89"/>
    <edge id="G4H4" from="G4" to="H4" priority="-1" numLanes="1" speed="13.89"/>
    <edge id="G5F5" from="G5" to="F5" priority="-1" numLanes="1" speed="13.89"/>
    <edge id="G5G4" from="G5" to="G4" priority="-1" numLanes="1" speed="13.89"/>
    <edge id="G5G6" from="G5" to="G6" priority="-1" numLanes="1" speed="13.89"/>
    <edge id="G5H5" from="G5" to="H5" priority="-1" numLanes="1" speed="13.89"/>
    <edge id="G6F6" from="G6" to="F6" priority="-1" numLanes="1" speed="13.89"/>
    <edge id="G6G5" from="G6" to="G5" priority="-1" numLanes="1" speed="13.89"/>
    <edge id="G6G7" from="G6" to="G7" priority="-1" numLanes="1" speed="13.89"/>
    <edge id="G6H6" from="G6" to="H6" priority="-1" numLanes="1" speed="13.89"/>
    <edge id="G7F7" from="G7" to="F7" priority="-1" numLanes="1" speed="13.89"/>
    <edge id="G7G6" from="G7" to="G6" priority="-1" numLanes="1" speed="13.89"/>
    <edge id="G7G8" from="G7" to="G8" priority="-1" numLanes="1" speed="13.89"/>
    <edge id="G7H7" from="G7" to="H7" priority="-1" numLanes="1" speed="13.89"/>
    <edge id="G8F8" from="G8" to="F8" priority="-1" numLanes="1" speed="13.89"/>
    <edge id="G8G7" from="G8" to="G7" priority="-1" numLanes="1" speed="13.89"/>
    <edge id="G8G9" from="G8" to="G9" priority="-1" numLanes="1" speed="13.89"/>
    <edge id="G8H8" from="G8" to="H8" priority="-1" numLanes="1" speed="13.89"/>
    <edge id="G9F9" from="G9" to="F9" priority="-1" numLanes="1" speed="13.89"/>
    <edge id="G9G8" from="G9" to="G8" priority="-1" numLanes="1" speed="13.89"/>
    <edge id="G9H9" from="G9" to="H9" priority="-1" numLanes="1" speed="13.89"/>
    <edge id="H0G0" from="H0" to="G0" priority="-1" numLanes="1" speed="13.89"/>
    <edge id="H0H1" from="H0" to="H1" priority="-1" numLanes="1" speed="13.89"/>
    <edge id="H0I0" from="H0" to="I0" priority="-1" numLanes="1" speed="13.89"/>
    <edge id="H1G1" from="H1" to="G1" priority="-1" numLanes="1" speed="13.89"/>
    <edge id="H1H0" from="H1" to="H0" priority="-1" numLanes="1" speed="13.89"/>
    <edge id="H1H2" from="H1" to="H2" priority="-1" numLanes="1" speed="13.89"/>
    <edge id="H1I1" from="H1" to="I1" priority="-1" numLanes="1" speed="13.89"/>
    <edge id="H2G2" from="H2" to="G2" priority="-1" numLanes="1" speed="13.89"/>
    <edge id="H2H1" from="H2" to="H1" priority="-1" numLanes="1" speed="13.89"/>
    <edge id="H2H3" from="H2" to="H3" priority="-1" numLanes="1" speed="13.89"/>
    <edge id="H2I2" from="H2" to="I2" priority="-1" numLanes="1" speed="13.89"/>
    <edge id="H3G3" from="H3" to="G3" priority="-1" numLanes="1" speed="13.89"/>
    <edge id="H3H2" from="H3" to="H2" priority="-1" numLanes="1" speed="13.89"/>
    <edge id="H3H4" from="H3" to="H4" priority="-1" numLanes="1" speed="13.89"/>
    <edge id="H3I3" from="H3" to="I3" priority="-1" numLanes="1" speed="13.89"/>
    <edge id="H4G4" from="H4" to="G4" priority="-1" numLanes="1" speed="13.89"/>
    <edge id="H4H3" from="H4" to="H3" priority="-1" numLanes="1" speed="13.89"/>
    <edge id="H4H5" from="H4" to="H5" priority="-1" numLanes="1" speed="13.89"/>
    <edge id="H4I4" from="H4" to="I4" priority="-1" numLanes="1" speed="13.89"/>
    <edge id="H5G5" from="H5" to="G5" priority="-1" numLanes="1" speed="13.89"/>
    <edge id="H5H4" from="H5" to="H4" priority="-1" numLanes="1" speed="13.89"/>
    <edge id="H5H6" from="H5" to="H6" priority="-1" numLanes="1" speed="13.89"/>
    <edge id="H5I5" from="H5" to="I5" priority="-1" numLanes="1" speed="13.89"/>
    <edge id="H6G6" from="H6" to="G6" priority="-1" numLanes="1" speed="13.89"/>
    <edge id="H6H5" from="H6" to="H5" priority="-1" numLanes="1" speed="13.89"/>
    <edge id="H6H7" from="H6" to="H7" priority="-1" numLanes="1" speed="13.89"/>
    <edge id="H6I6" from="H6" to="I6" priority="-1" numLanes="1" speed="13.89"/>
    <edge id="H7G7" from="H7" to="G7" priority="-1" numLanes="1" speed="13.89"/>
    <edge id="H7H6" from="H7" to="H6" priority="-1" numLanes="1" speed="13.89"/>
    <edge id="H7H8" from="H7" to="H8" priority="-1" numLanes="1" speed="13.89"/>
    <edge id="H7I7" from="H7" to="I7" priority="-1" numLanes="1" speed="13.89"/>
    <edge id="H8G8" from="H8" to="G8" priority="-1" numLanes="1" speed="13.89"/>
    <edge id="H8H7" from="H8" to="H7" priority="-1" numLanes="1" speed="13.89"/>
    <edge id="H8H9" from="H8" to="H9" priority="-1" numLanes="1" speed="13.89"/>
    <edge id="H8I8" from="H8" to="I8" priority="-1" numLanes="1" speed="13.89"/>
    <edge id="H9G9" from="H9" to="G9" priority="-1" numLanes="1" speed="13.89"/>
    <edge id="H9H8" from="H9" to="H8" priority="-1" numLanes="1" speed="13.89"/>
    <edge id="H9I9" from="H9" to="I9" priority="-1" numLanes="1" speed="13.89"/>
    <edge id="I0H0" from="I0" to="H0" priority="-1" numLanes="1" speed="13.89"/>
    <edge id="I0I1" from="I0" to="I1" priority="-1" numLanes="1" speed="13.89"/>
    <edge id="I0J0" from="I0" to="J0" priority="-1" numLanes="1" speed="13.89"/>
    <edge id="I1H1" from="I1" to="H1" priority="-1" numLanes="1" speed="13.89"/>
    <edge id="I1I0" from="I1" to="I0" priority="-1" numLanes="1" speed="13.89"/>
    <edge id="I1I2" from="I1" to="I2" priority="-1" numLanes="1" speed="13.89"/>
    <edge id="I1J1" from="I1" to="J1" priority="-1" numLanes="1" speed="13.89"/>
    <edge id="I2H2" from="I2" to="H2" priority="-1" numLanes="1" speed="13.89"/>
    <edge id="I2I1" from="I2" to="I1" priority="-1" numLanes="1" speed="13.89"/>
    <edge id="I2I3" from="I2" to="I3" priority="-1" numLanes="1" speed="13.89"/>
    <edge id="I2J2" from="I2" to="J2" priority="-1" numLanes="1" speed="13.89"/>
    <edge id="I3H3" from="I3" to="H3" priority="-1" numLanes="1" speed="13.89"/>
    <edge id="I3I2" from="I3" to="I2" priority="-1" numLanes="1" speed="13.89"/>
    <edge id="I3I4" from="I3" to="I4" priority="-1" numLanes="1" speed="13.89"/>
    <edge id="I3J3" from="I3" to="J3" priority="-1" numLanes="1" speed="13.89"/>
    <edge id="I4H4" from="I4" to="H4" priority="-1" numLanes="1" speed="13.89"/>
    <edge id="I4I3" from="I4" to="I3" priority="-1" numLanes="1" speed="13.89"/>
    <edge id="I4I5" from="I4" to="I5" priority="-1" numLanes="1" speed="13.89"/>
    <edge id="I4J4" from="I4" to="J4" priority="-1" numLanes="1" speed="13.89"/>
    <edge id="I5H5" from="I5" to="H5" priority="-1" numLanes="1" speed="13.89"/>
    <edge id="I5I4" from="I5" to="I4" priority="-1" numLanes="1" speed="13.89"/>
    <edge id="I5I6" from="I5" to="I6" priority="-1" numLanes="1" speed="13.89"/>
    <edge id="I5J5" from="I5" to="J5" priority="-1" numLanes="1" speed="13.89"/>
    <edge id="I6H6" from="I6" to="H6" priority="-1" numLanes="1" speed="13.89"/>
    <edge id="I6I5" from="I6" to="I5" priority="-1" numLanes="1" speed="13.89"/>
    <edge id="I6I7" from="I6" to="I7" priority="-1" numLanes="1" speed="13.89"/>
    <edge id="I6J6" from="I6" to="J6" priority="-1" numLanes="1" speed="13.89"/>
    <edge id="I7H7" from="I7" to="H7" priority="-1" numLanes="1" speed="13.89"/>
    <edge id="I7I6" from="I7" to="I6" priority="-1" numLanes="1" speed="13.89"/>
    <edge id="I7I8" from="I7" to="I8" priority="-1" numLanes="1" speed="13.89"/>
    <edge id="I7J7" from="I7" to="J7" priority="-1" numLanes="1" speed="13.89"/>
    <edge id="I8H8" from="I8" to="H8" priority="-1" numLanes="1" speed="13.89"/>
    <edge id="I8I7" from="I8" to="I7" priority="-1" numLanes="1" speed="13.89"/>
    <edge id="I8I9" from="I8" to="I9" priority="-1" numLanes="1" speed="13.89"/>
    <edge id="I8J8" from="I8" to="J8" priority="-1" numLanes="1" speed="13.89"/>
    <edge id="I9H9" from="I9" to="H9" priority="-1" numLanes="1" speed="13.89"/>
    <edge id="I9I8" from="I9" to="I8" priority="-1" numLanes="1" speed="13.89"/>
    <edge id="I9J9" from="I9" to="J9" priority="-1" numLanes="1" speed="13.89"/>
    <edge id="J0I0" from="J0" to="I0" priority="-1" numLanes="1" speed="13.89"/>
    <edge id="J0J1" from="J0" to="J1" priority="-1" numLanes="1" speed="13.89"/>
    <edge id="J1I1" from="J1" to="I1" priority="-1" numLanes="1" speed="13.89"/>
    <edge id="J1J0" from="J1" to="J0" priority="-1" numLanes="1" speed="13.89"/>
    <edge id="J1J2" from="J1" to="J2" priority="-1" numLanes="1" speed="13.89"/>
    <edge id="J2I2" from="J2" to="I2" priority="-1" numLanes="1" speed="13.89"/>
    <edge id="J2J1" from="J2" to="J1" priority="-1" numLanes="1" speed="13.89"/>
    <edge id="J2J3" from="J2" to="J3" priority="-1" numLanes="1" speed="13.89"/>
    <edge id="J3I3" from="J3" to="I3" priority="-1" numLanes="1" speed="13.89"/>
    <edge id="J3J2" from="J3" to="J2" priority="-1" numLanes="1" speed="13.89"/>
    <edge id="J3J4" from="J3" to="J4" priority="-1" numLanes="1" speed="13.89"/>
    <edge id="J4I4" from="J4" to="I4" priority="-1" numLanes="1" speed="13.89"/>
    <edge id="J4J3" from="J4" to="J3" priority="-1" numLanes="1" speed="13.89"/>
    <edge id="J4J5" from="J4" to="J5" priority="-1" numLanes="1" speed="13.89"/>
    <edge id="J5I5" from="J5" to="I5" priority="-1" numLanes="1" speed="13.89"/>
    <edge id="J5J4" from="J5" to="J4" priority="-1" numLanes="1" speed="13.89"/>
    <edge id="J5J6" from="J5" to="J6" priority="-1" numLanes="1" speed="13.89"/>
    <edge id="J6I6" from="J6" to="I6" priority="-1" numLanes="1" speed="13.89"/>
    <edge id="J6J5" from="J6" to="J5" priority="-1" numLanes="1" speed="13.89"/>
    <edge id="J6J7" from="J6" to="J7" priority="-1" numLanes="1" speed="13.89"/>
    <edge id="J7I7" from="J7" to="I7" priority="-1" numLanes="1" speed="13.89"/>
    <edge id="J7J6" from="J7" to="J6" priority="-1" numLanes="1" speed="13.89"/>
    <edge id="J7J8" from="J7" to="J8" priority="-1" numLanes="1" speed="13.89"/>
    <edge id="J8I8" from="J8" to="I8" priority="-1" numLanes="1" speed="13.89"/>