<?xml version="1.0" encoding="UTF-8"?>


<connections version="1.20" xmlns:xsi="http://www.w3.org/2001/XMLSchema-instance"
    xsi:noNamespaceSchemaLocation="http://sumo.dlr.de/xsd/connections_file.xsd">

    <connection from="s" to="b1" fromLane="0" toLane="0" />
    <connection from="s" to="a1" fromLane="1" toLane="0" />

    <connection from="a1" to="a2" fromLane="0" toLane="0" />
    <connection from="a2" to="t" fromLane="0" toLane="1" />
    <connection from="sa" to="a2" fromLane="0" toLane="0" />

    <connection from="b1" to="b2" fromLane="0" toLane="0" />
    <connection from="b2" to="t" fromLane="0" toLane="0" />
    <connection from="sb" to="b2" fromLane="0" toLane="0" />

</connections>