<?xml version="1.0" encoding="UTF-8"?>

<!-- generated on 2025-10-23 18:15:42 by Eclipse SUMO netconvert Version 1.24.0
<netconvertConfiguration xmlns:xsi="http://www.w3.org/2001/XMLSchema-instance"
xsi:noNamespaceSchemaLocation="http://sumo.dlr.de/xsd/netconvertConfiguration.xsd">

    <input>
        <sumo-net-file value="/nfs/work/hcsoere/fast-dta/input/random/instance_1/1_n463_t36824.net.xml"/>
    </input>

    <output>
        <plain-output-prefix value="/nfs/work/hcsoere/fast-dta/input/random/instance_1/1_n463_t36824"/>
    </output>

    <processing>
        <geometry.min-radius.fix.railways value="false"/>
        <geometry.avoid-overlap value="false"/>
        <geometry.max-grade.fix value="false"/>
        <offset.disable-normalization value="true"/>
        <lefthand value="0"/>
    </processing>

    <junctions>
        <no-turnarounds value="true"/>
        <junctions.corner-detail value="5"/>
        <junctions.limit-turn-speed value="5.50"/>
        <rectangular-lane-cut value="0"/>
    </junctions>

    <pedestrian>
        <walkingareas value="0"/>
    </pedestrian>

</netconvertConfiguration>
-->

<edges version="1.20" xmlns:xsi="http://www.w3.org/2001/XMLSchema-instance"
    xsi:noNamespaceSchemaLocation="http://sumo.dlr.de/xsd/edges_file.xsd">

    <edge id="s" from="os" to="sab" priority="-1" numLanes="2" speed="13.89" />
    <edge id="a1" from="sab" to="sa" priority="-1" numLanes="1" speed="13.89" />
    <edge id="a2" from="sa" to="abt" priority="-1" numLanes="1" speed="13.89" />
    <edge id="b1" from="sab" to="sb" priority="-1" numLanes="1" speed="13.89" />
    <edge id="b2" from="sb" to="abt" priority="-1" numLanes="1" speed="13.89" />

    <edge id="sa" from="osa" to="sa" priority="1" numLanes="2" speed="13.89" />
    <edge id="sb" from="osb" to="sb" priority="1" numLanes="2" speed="13.89" />

    <edge id="t" from="abt" to="to" priority="-1" numLanes="2" speed="13.89" />
</edges>