<?xml version='1.0' encoding='utf-8'?>
<routes>
    <trip id="0" depart="0.00" from="s" to="t" departLane="best" departSpeed="max" departPos="base" arrivalPos="max" />
    <trip id="1" depart="0.00" from="sa" to="t" departLane="best" departSpeed="max" departPos="base" arrivalPos="max" />
    <trip id="3" depart="2.00" from="sa" to="t" departLane="best" departSpeed="max" departPos="base" arrivalPos="max" />
    <trip id="5" depart="4.00" from="sa" to="t" departLane="best" departSpeed="max" departPos="base" arrivalPos="max" />
    <trip id="8" depart="6.00" from="sa" to="t" departLane="best" departSpeed="max" departPos="base" arrivalPos="max" />
    <trip id="10" depart="8.00" from="sa" to="t" departLane="best" departSpeed="max" departPos="base" arrivalPos="max" />
    <trip id="12" depart="10.00" from="sa" to="t" departLane="best" departSpeed="max" departPos="base" arrivalPos="max" />
    <trip id="14" depart="12.00" from="s" to="t" departLane="best" departSpeed="max" departPos="base" arrivalPos="max" />
    <trip id="15" depart="12.00" from="sa" to="t" departLane="best" departSpeed="max" departPos="base" arrivalPos="max" />
    <trip id="17" depart="14.00" from="sa" to="t" departLane="best" departSpeed="max" departPos="base" arrivalPos="max" />
    <trip id="19" depart="16.00" from="sa" to="t" departLane="best" departSpeed="max" departPos="base" arrivalPos="max" />
    <trip id="22" depart="18.00" from="sa" to="t" departLane="best" departSpeed="max" departPos="base" arrivalPos="max" />
    <trip id="24" depart="20.00" from="sa" to="t" departLane="best" departSpeed="max" departPos="base" arrivalPos="max" />
    <trip id="26" depart="22.00" from="sa" to="t" departLane="best" departSpeed="max" departPos="base" arrivalPos="max" />
    <trip id="28" depart="24.00" from="s" to="t" departLane="best" departSpeed="max" departPos="base" arrivalPos="max" />
    <trip id="29" depart="24.00" from="sa" to="t" departLane="best" departSpeed="max" departPos="base" arrivalPos="max" />
    <trip id="31" depart="26.00" from="sa" to="t" departLane="best" departSpeed="max" departPos="base" arrivalPos="max" />
    <trip id="33" depart="28.00" from="sa" to="t" departLane="best" departSpeed="max" departPos="base" arrivalPos="max" />
    <trip id="36" depart="30.00" from="sa" to="t" departLane="best" departSpeed="max" departPos="base" arrivalPos="max" />
    <trip id="38" depart="32.00" from="sa" to="t" departLane="best" departSpeed="max" departPos="base" arrivalPos="max" />
    <trip id="40" depart="34.00" from="sa" to="t" departLane="best" departSpeed="max" departPos="base" arrivalPos="max" />
    <trip id="42" depart="36.00" from="s" to="t" departLane="best" departSpeed="max" departPos="base" arrivalPos="max" />
    <trip id="43" depart="36.00" from="sa" to="t" departLane="best" departSpeed="max" departPos="base" arrivalPos="max" />
    <trip id="45" depart="38.00" from="sa" to="t" departLane="best" departSpeed="max" departPos="base" arrivalPos="max" />
    <trip id="47" depart="40.00" from="sa" to="t" departLane="best" departSpeed="max" departPos="base" arrivalPos="max" />
    <trip id="50" depart="42.00" from="sa" to="t" departLane="best" departSpeed="max" departPos="base" arrivalPos="max" />
    <trip id="52" depart="44.00" from="sa" to="t" departLane="best" departSpeed="max" departPos="base" arrivalPos="max" />
    <trip id="54" depart="46.00" from="sa" to="t" departLane="best" departSpeed="max" departPos="base" arrivalPos="max" />
    <trip id="56" depart="48.00" from="s" to="t" departLane="best" departSpeed="max" departPos="base" arrivalPos="max" />
    <trip id="57" depart="48.00" from="sa" to="t" departLane="best" departSpeed="max" departPos="base" arrivalPos="max" />
    <trip id="59" depart="50.00" from="sa" to="t" departLane="best" departSpeed="max" departPos="base" arrivalPos="max" />
    <trip id="61" depart="52.00" from="sa" to="t" departLane="best" departSpeed="max" departPos="base" arrivalPos="max" />
    <trip id="64" depart="54.00" from="sa" to="t" departLane="best" departSpeed="max" departPos="base" arrivalPos="max" />
    <trip id="66" depart="56.00" from="sa" to="t" departLane="best" departSpeed="max" departPos="base" arrivalPos="max" />
    <trip id="68" depart="58.00" from="sa" to="t" departLane="best" departSpeed="max" departPos="base" arrivalPos="max" />
    <trip id="70" depart="60.00" from="s" to="t" departLane="best" departSpeed="max" departPos="base" arrivalPos="max" />
    <trip id="71" depart="60.00" from="sa" to="t" departLane="best" departSpeed="max" departPos="base" arrivalPos="max" />
    <trip id="73" depart="62.00" from="sa" to="t" departLane="best" departSpeed="max" departPos="base" arrivalPos="max" />
    <trip id="75" depart="64.00" from="sa" to="t" departLane="best" departSpeed="max" departPos="base" arrivalPos="max" />
    <trip id="78" depart="66.00" from="sa" to="t" departLane="best" departSpeed="max" departPos="base" arrivalPos="max" />
    <trip id="80" depart="68.00" from="sa" to="t" departLane="best" departSpeed="max" departPos="base" arrivalPos="max" />
    <trip id="82" depart="70.00" from="sa" to="t" departLane="best" departSpeed="max" departPos="base" arrivalPos="max" />
    <trip id="84" depart="72.00" from="s" to="t" departLane="best" departSpeed="max" departPos="base" arrivalPos="max" />
    <trip id="85" depart="72.00" from="sa" to="t" departLane="best" departSpeed="max" departPos="base" arrivalPos="max" />
    <trip id="87" depart="74.00" from="sa" to="t" departLane="best" departSpeed="max" departPos="base" arrivalPos="max" />
    <trip id="89" depart="76.00" from="sa" to="t" departLane="best" departSpeed="max" departPos="base" arrivalPos="max" />
    <trip id="92" depart="78.00" from="sa" to="t" departLane="best" departSpeed="max" departPos="base" arrivalPos="max" />
    <trip id="94" depart="80.00" from="sa" to="t" departLane="best" departSpeed="max" departPos="base" arrivalPos="max" />
    <trip id="96" depart="82.00" from="sa" to="t" departLane="best" departSpeed="max" departPos="base" arrivalPos="max" />
    <trip id="98" depart="84.00" from="s" to="t" departLane="best" departSpeed="max" departPos="base" arrivalPos="max" />
    <trip id="99" depart="84.00" from="sa" to="t" departLane="best" departSpeed="max" departPos="base" arrivalPos="max" />
    <trip id="101" depart="86.00" from="sa" to="t" departLane="best" departSpeed="max" departPos="base" arrivalPos="max" />
    <trip id="103" depart="88.00" from="sa" to="t" departLane="best" departSpeed="max" departPos="base" arrivalPos="max" />
    <trip id="106" depart="90.00" from="sa" to="t" departLane="best" departSpeed="max" departPos="base" arrivalPos="max" />
    <trip id="108" depart="92.00" from="sa" to="t" departLane="best" departSpeed="max" departPos="base" arrivalPos="max" />
    <trip id="110" depart="94.00" from="sa" to="t" departLane="best" departSpeed="max" departPos="base" arrivalPos="max" />
    <trip id="112" depart="96.00" from="s" to="t" departLane="best" departSpeed="max" departPos="base" arrivalPos="max" />
    <trip id="113" depart="96.00" from="sa" to="t" departLane="best" departSpeed="max" departPos="base" arrivalPos="max" />
    <trip id="115" depart="98.00" from="sa" to="t" departLane="best" departSpeed="max" departPos="base" arrivalPos="max" />
    <trip id="117" depart="100.00" from="sa" to="t" departLane="best" departSpeed="max" departPos="base" arrivalPos="max" />
    <trip id="120" depart="102.00" from="sa" to="t" departLane="best" departSpeed="max" departPos="base" arrivalPos="max" />
    <trip id="122" depart="104.00" from="sa" to="t" departLane="best" departSpeed="max" departPos="base" arrivalPos="max" />
    <trip id="124" depart="106.00" from="sa" to="t" departLane="best" departSpeed="max" departPos="base" arrivalPos="max" />
    <trip id="126" depart="108.00" from="s" to="t" departLane="best" departSpeed="max" departPos="base" arrivalPos="max" />
    <trip id="127" depart="108.00" from="sa" to="t" departLane="best" departSpeed="max" departPos="base" arrivalPos="max" />
    <trip id="129" depart="110.00" from="sa" to="t" departLane="best" departSpeed="max" departPos="base" arrivalPos="max" />
    <trip id="131" depart="112.00" from="sa" to="t" departLane="best" departSpeed="max" departPos="base" arrivalPos="max" />
    <trip id="134" depart="114.00" from="sa" to="t" departLane="best" departSpeed="max" departPos="base" arrivalPos="max" />
    <trip id="136" depart="116.00" from="sa" to="t" departLane="best" departSpeed="max" departPos="base" arrivalPos="max" />
    <trip id="138" depart="118.00" from="sa" to="t" departLane="best" departSpeed="max" departPos="base" arrivalPos="max" />
    <trip id="140" depart="120.00" from="s" to="t" departLane="best" departSpeed="max" departPos="base" arrivalPos="max" />
    <trip id="141" depart="120.00" from="sa" to="t" departLane="best" departSpeed="max" departPos="base" arrivalPos="max" />
    <trip id="143" depart="122.00" from="sa" to="t" departLane="best" departSpeed="max" departPos="base" arrivalPos="max" />
    <trip id="145" depart="124.00" from="sa" to="t" departLane="best" departSpeed="max" departPos="base" arrivalPos="max" />
    <trip id="148" depart="126.00" from="sa" to="t" departLane="best" departSpeed="max" departPos="base" arrivalPos="max" />
    <trip id="150" depart="128.00" from="sa" to="t" departLane="best" departSpeed="max" departPos="base" arrivalPos="max" />
    <trip id="152" depart="130.00" from="sa" to="t" departLane="best" departSpeed="max" departPos="base" arrivalPos="max" />
    <trip id="154" depart="132.00" from="s" to="t" departLane="best" departSpeed="max" departPos="base" arrivalPos="max" />
    <trip id="155" depart="132.00" from="sa" to="t" departLane="best" departSpeed="max" departPos="base" arrivalPos="max" />
    <trip id="157" depart="134.00" from="sa" to="t" departLane="best" departSpeed="max" departPos="base" arrivalPos="max" />
    <trip id="159" depart="136.00" from="sa" to="t" departLane="best" departSpeed="max" departPos="base" arrivalPos="max" />
    <trip id="162" depart="138.00" from="sa" to="t" departLane="best" departSpeed="max" departPos="base" arrivalPos="max" />
    <trip id="164" depart="140.00" from="sa" to="t" departLane="best" departSpeed="max" departPos="base" arrivalPos="max" />
    <trip id="166" depart="142.00" from="sa" to="t" departLane="best" departSpeed="max" departPos="base" arrivalPos="max" />
    <trip id="168" depart="144.00" from="s" to="t" departLane="best" departSpeed="max" departPos="base" arrivalPos="max" />
    <trip id="169" depart="144.00" from="sa" to="t" departLane="best" departSpeed="max" departPos="base" arrivalPos="max" />
    <trip id="171" depart="146.00" from="sa" to="t" departLane="best" departSpeed="max" departPos="base" arrivalPos="max" />
    <trip id="173" depart="148.00" from="sa" to="t" departLane="best" departSpeed="max" departPos="base" arrivalPos="max" />
    <trip id="176" depart="150.00" from="sa" to="t" departLane="best" departSpeed="max" departPos="base" arrivalPos="max" />
    <trip id="178" depart="152.00" from="sa" to="t" departLane="best" departSpeed="max" departPos="base" arrivalPos="max" />
    <trip id="180" depart="154.00" from="sa" to="t" departLane="best" departSpeed="max" departPos="base" arrivalPos="max" />
    <trip id="182" depart="156.00" from="s" to="t" departLane="best" departSpeed="max" departPos="base" arrivalPos="max" />
    <trip id="183" depart="156.00" from="sa" to="t" departLane="best" departSpeed="max" departPos="base" arrivalPos="max" />
    <trip id="185" depart="158.00" from="sa" to="t" departLane="best" departSpeed="max" departPos="base" arrivalPos="max" />
    <trip id="187" depart="160.00" from="sa" to="t" departLane="best" departSpeed="max" departPos="base" arrivalPos="max" />
    <trip id="190" depart="162.00" from="sa" to="t" departLane="best" departSpeed="max" departPos="base" arrivalPos="max" />
    <trip id="192" depart="164.00" from="sa" to="t" departLane="best" departSpeed="max" departPos="base" arrivalPos="max" />
    <trip id="194" depart="166.00" from="sa" to="t" departLane="best" departSpeed="max" departPos="base" arrivalPos="max" />
    <trip id="196" depart="168.00" from="s" to="t" departLane="best" departSpeed="max" departPos="base" arrivalPos="max" />
    <trip id="197" depart="168.00" from="sa" to="t" departLane="best" departSpeed="max" departPos="base" arrivalPos="max" />
    <trip id="199" depart="170.00" from="sa" to="t" departLane="best" departSpeed="max" departPos="base" arrivalPos="max" />
    <trip id="201" depart="172.00" from="sa" to="t" departLane="best" departSpeed="max" departPos="base" arrivalPos="max" />
    <trip id="204" depart="174.00" from="sa" to="t" departLane="best" departSpeed="max" departPos="base" arrivalPos="max" />
    <trip id="206" depart="176.00" from="sa" to="t" departLane="best" departSpeed="max" departPos="base" arrivalPos="max" />
    <trip id="208" depart="178.00" from="sa" to="t" departLane="best" departSpeed="max" departPos="base" arrivalPos="max" />
    <trip id="210" depart="180.00" from="s" to="t" departLane="best" departSpeed="max" departPos="base" arrivalPos="max" />
    <trip id="211" depart="180.00" from="sa" to="t" departLane="best" departSpeed="max" departPos="base" arrivalPos="max" />
    <trip id="213" depart="182.00" from="sa" to="t" departLane="best" departSpeed="max" departPos="base" arrivalPos="max" />
    <trip id="215" depart="184.00" from="sa" to="t" departLane="best" departSpeed="max" departPos="base" arrivalPos="max" />
    <trip id="218" depart="186.00" from="sa" to="t" departLane="best" departSpeed="max" departPos="base" arrivalPos="max" />
    <trip id="220" depart="188.00" from="sa" to="t" departLane="best" departSpeed="max" departPos="base" arrivalPos="max" />
    <trip id="222" depart="190.00" from="sa" to="t" departLane="best" departSpeed="max" departPos="base" arrivalPos="max" />
    <trip id="224" depart="192.00" from="s" to="t" departLane="best" departSpeed="max" departPos="base" arrivalPos="max" />
    <trip id="225" depart="192.00" from="sa" to="t" departLane="best" departSpeed="max" departPos="base" arrivalPos="max" />
    <trip id="227" depart="194.00" from="sa" to="t" departLane="best" departSpeed="max" departPos="base" arrivalPos="max" />
    <trip id="229" depart="196.00" from="sa" to="t" departLane="best" departSpeed="max" departPos="base" arrivalPos="max" />
    <trip id="232" depart="198.00" from="sa" to="t" departLane="best" departSpeed="max" departPos="base" arrivalPos="max" />
    <trip id="234" depart="200.00" from="sa" to="t" departLane="best" departSpeed="max" departPos="base" arrivalPos="max" />
    <trip id="236" depart="202.00" from="sa" to="t" departLane="best" departSpeed="max" departPos="base" arrivalPos="max" />
    <trip id="238" depart="204.00" from="s" to="t" departLane="best" departSpeed="max" departPos="base" arrivalPos="max" />
    <trip id="239" depart="204.00" from="sa" to="t" departLane="best" departSpeed="max" departPos="base" arrivalPos="max" />
    <trip id="241" depart="206.00" from="sa" to="t" departLane="best" departSpeed="max" departPos="base" arrivalPos="max" />
    <trip id="243" depart="208.00" from="sa" to="t" departLane="best" departSpeed="max" departPos="base" arrivalPos="max" />
    <trip id="246" depart="210.00" from="sa" to="t" departLane="best" departSpeed="max" departPos="base" arrivalPos="max" />
    <trip id="248" depart="212.00" from="sa" to="t" departLane="best" departSpeed="max" departPos="base" arrivalPos="max" />
    <trip id="250" depart="214.00" from="sa" to="t" departLane="best" departSpeed="max" departPos="base" arrivalPos="max" />
    <trip id="252" depart="216.00" from="s" to="t" departLane="best" departSpeed="max" departPos="base" arrivalPos="max" />
    <trip id="253" depart="216.00" from="sa" to="t" departLane="best" departSpeed="max" departPos="base" arrivalPos="max" />
    <trip id="255" depart="218.00" from="sa" to="t" departLane="best" departSpeed="max" departPos="base" arrivalPos="max" />
    <trip id="257" depart="220.00" from="sa" to="t" departLane="best" departSpeed="max" departPos="base" arrivalPos="max" />
    <trip id="260" depart="222.00" from="sa" to="t" departLane="best" departSpeed="max" departPos="base" arrivalPos="max" />
    <trip id="262" depart="224.00" from="sa" to="t" departLane="best" departSpeed="max" departPos="base" arrivalPos="max" />
    <trip id="264" depart="226.00" from="sa" to="t" departLane="best" departSpeed="max" departPos="base" arrivalPos="max" />
    <trip id="266" depart="228.00" from="s" to="t" departLane="best" departSpeed="max" departPos="base" arrivalPos="max" />
    <trip id="267" depart="228.00" from="sa" to="t" departLane="best" departSpeed="max" departPos="base" arrivalPos="max" />
    <trip id="269" depart="230.00" from="sa" to="t" departLane="best" departSpeed="max" departPos="base" arrivalPos="max" />
    <trip id="271" depart="232.00" from="sa" to="t" departLane="best" departSpeed="max" departPos="base" arrivalPos="max" />
    <trip id="274" depart="234.00" from="sa" to="t" departLane="best" departSpeed="max" departPos="base" arrivalPos="max" />
    <trip id="276" depart="236.00" from="sa" to="t" departLane="best" departSpeed="max" departPos="base" arrivalPos="max" />
    <trip id="278" depart="238.00" from="sa" to="t" departLane="best" departSpeed="max" departPos="base" arrivalPos="max" />
    <trip id="280" depart="240.00" from="s" to="t" departLane="best" departSpeed="max" departPos="base" arrivalPos="max" />
    <trip id="281" depart="240.00" from="sa" to="t" departLane="best" departSpeed="max" departPos="base" arrivalPos="max" />
    <trip id="283" depart="242.00" from="sa" to="t" departLane="best" departSpeed="max" departPos="base" arrivalPos="max" />
    <trip id="285" depart="244.00" from="sa" to="t" departLane="best" departSpeed="max" departPos="base" arrivalPos="max" />
    <trip id="288" depart="246.00" from="sa" to="t" departLane="best" departSpeed="max" departPos="base" arrivalPos="max" />
    <trip id="290" depart="248.00" from="sa" to="t" departLane="best" departSpeed="max" departPos="base" arrivalPos="max" />
    <trip id="292" depart="250.00" from="sa" to="t" departLane="best" departSpeed="max" departPos="base" arrivalPos="max" />
    <trip id="294" depart="252.00" from="s" to="t" departLane="best" departSpeed="max" departPos="base" arrivalPos="max" />
    <trip id="295" depart="252.00" from="sa" to="t" departLane="best" departSpeed="max" departPos="base" arrivalPos="max" />
    <trip id="297" depart="254.00" from="sa" to="t" departLane="best" departSpeed="max" departPos="base" arrivalPos="max" />
    <trip id="299" depart="256.00" from="sa" to="t" departLane="best" departSpeed="max" departPos="base" arrivalPos="max" />
    <trip id="302" depart="258.00" from="sa" to="t" departLane="best" departSpeed="max" departPos="base" arrivalPos="max" />
    <trip id="304" depart="260.00" from="sa" to="t" departLane="best" departSpeed="max" departPos="base" arrivalPos="max" />
    <trip id="306" depart="262.00" from="sa" to="t" departLane="best" departSpeed="max" departPos="base" arrivalPos="max" />
    <trip id="308" depart="264.00" from="s" to="t" departLane="best" departSpeed="max" departPos="base" arrivalPos="max" />
    <trip id="309" depart="264.00" from="sa" to="t" departLane="best" departSpeed="max" departPos="base" arrivalPos="max" />
    <trip id="311" depart="266.00" from="sa" to="t" departLane="best" departSpeed="max" departPos="base" arrivalPos="max" />
    <trip id="313" depart="268.00" from="sa" to="t" departLane="best" departSpeed="max" departPos="base" arrivalPos="max" />
    <trip id="316" depart="270.00" from="sa" to="t" departLane="best" departSpeed="max" departPos="base" arrivalPos="max" />
    <trip id="318" depart="272.00" from="sa" to="t" departLane="best" departSpeed="max" departPos="base" arrivalPos="max" />
    <trip id="320" depart="274.00" from="sa" to="t" departLane="best" departSpeed="max" departPos="base" arrivalPos="max" />
    <trip id="322" depart="276.00" from="s" to="t" departLane="best" departSpeed="max" departPos="base" arrivalPos="max" />
    <trip id="323" depart="276.00" from="sa" to="t" departLane="best" departSpeed="max" departPos="base" arrivalPos="max" />
    <trip id="325" depart="278.00" from="sa" to="t" departLane="best" departSpeed="max" departPos="base" arrivalPos="max" />
    <trip id="327" depart="280.00" from="sa" to="t" departLane="best" departSpeed="max" departPos="base" arrivalPos="max" />
    <trip id="330" depart="282.00" from="sa" to="t" departLane="best" departSpeed="max" departPos="base" arrivalPos="max" />
    <trip id="332" depart="284.00" from="sa" to="t" departLane="best" departSpeed="max" departPos="base" arrivalPos="max" />
    <trip id="334" depart="286.00" from="sa" to="t" departLane="best" departSpeed="max" departPos="base" arrivalPos="max" />
    <trip id="336" depart="288.00" from="s" to="t" departLane="best" departSpeed="max" departPos="base" arrivalPos="max" />
    <trip id="337" depart="288.00" from="sa" to="t" departLane="best" departSpeed="max" departPos="base" arrivalPos="max" />
    <trip id="339" depart="290.00" from="sa" to="t" departLane="best" departSpeed="max" departPos="base" arrivalPos="max" />
    <trip id="341" depart="292.00" from="sa" to="t" departLane="best" departSpeed="max" departPos="base" arrivalPos="max" />
    <trip id="344" depart="294.00" from="sa" to="t" departLane="best" departSpeed="max" departPos="base" arrivalPos="max" />
    <trip id="346" depart="296.00" from="sa" to="t" departLane="best" departSpeed="max" departPos="base" arrivalPos="max" />
    <trip id="348" depart="298.00" from="sa" to="t" departLane="best" departSpeed="max" departPos="base" arrivalPos="max" />
    <trip id="350" depart="300.00" from="s" to="t" departLane="best" departSpeed="max" departPos="base" arrivalPos="max" />
    <trip id="354" depart="302.00" from="s" to="t" departLane="best" departSpeed="max" departPos="base" arrivalPos="max" />
    <trip id="358" depart="304.00" from="s" to="t" departLane="best" departSpeed="max" departPos="base" arrivalPos="max" />
    <trip id="362" depart="306.00" from="s" to="t" departLane="best" departSpeed="max" departPos="base" arrivalPos="max" />
    <trip id="366" depart="308.00" from="s" to="t" departLane="best" departSpeed="max" departPos="base" arrivalPos="max" />
    <trip id="370" depart="310.00" from="s" to="t" departLane="best" departSpeed="max" departPos="base" arrivalPos="max" />
    <trip id="374" depart="312.00" from="s" to="t" departLane="best" departSpeed="max" departPos="base" arrivalPos="max" />
    <trip id="378" depart="314.00" from="s" to="t" departLane="best" departSpeed="max" departPos="base" arrivalPos="max" />
    <trip id="382" depart="316.00" from="s" to="t" departLane="best" departSpeed="max" departPos="base" arrivalPos="max" />
    <trip id="386" depart="318.00" from="s" to="t" departLane="best" departSpeed="max" departPos="base" arrivalPos="max" />
    <trip id="390" depart="320.00" from="s" to="t" departLane="best" departSpeed="max" departPos="base" arrivalPos="max" />
    <trip id="394" depart="322.00" from="s" to="t" departLane="best" departSpeed="max" departPos="base" arrivalPos="max" />
    <trip id="398" depart="324.00" from="s" to="t" departLane="best" departSpeed="max" departPos="base" arrivalPos="max" />
    <trip id="402" depart="326.00" from="s" to="t" departLane="best" departSpeed="max" departPos="base" arrivalPos="max" />
    <trip id="406" depart="328.00" from="s" to="t" departLane="best" departSpeed="max" departPos="base" arrivalPos="max" />
    <trip id="410" depart="330.00" from="s" to="t" departLane="best" departSpeed="max" departPos="base" arrivalPos="max" />
    <trip id="414" depart="332.00" from="s" to="t" departLane="best" departSpeed="max" departPos="base" arrivalPos="max" />
    <trip id="418" depart="334.00" from="s" to="t" departLane="best" departSpeed="max" departPos="base" arrivalPos="max" />
    <trip id="422" depart="336.00" from="s" to="t" departLane="best" departSpeed="max" departPos="base" arrivalPos="max" />
    <trip id="426" depart="338.00" from="s" to="t" departLane="best" departSpeed="max" departPos="base" arrivalPos="max" />
    <trip id="430" depart="340.00" from="s" to="t" departLane="best" departSpeed="max" departPos="base" arrivalPos="max" />
    <trip id="434" depart="342.00" from="s" to="t" departLane="best" departSpeed="max" departPos="base" arrivalPos="max" />
    <trip id="438" depart="344.00" from="s" to="t" departLane="best" departSpeed="max" departPos="base" arrivalPos="max" />
    <trip id="442" depart="346.00" from="s" to="t" departLane="best" departSpeed="max" departPos="base" arrivalPos="max" />
    <trip id="446" depart="348.00" from="s" to="t" departLane="best" departSpeed="max" departPos="base" arrivalPos="max" />
    <trip id="450" depart="350.00" from="s" to="t" departLane="best" departSpeed="max" departPos="base" arrivalPos="max" />
    <trip id="454" depart="352.00" from="s" to="t" departLane="best" departSpeed="max" departPos="base" arrivalPos="max" />
    <trip id="458" depart="354.00" from="s" to="t" departLane="best" departSpeed="max" departPos="base" arrivalPos="max" />
    <trip id="462" depart="356.00" from="s" to="t" departLane="best" departSpeed="max" departPos="base" arrivalPos="max" />
    <trip id="466" depart="358.00" from="s" to="t" departLane="best" departSpeed="max" departPos="base" arrivalPos="max" />
    <trip id="470" depart="360.00" from="s" to="t" departLane="best" departSpeed="max" departPos="base" arrivalPos="max" />
    <trip id="474" depart="362.00" from="s" to="t" departLane="best" departSpeed="max" departPos="base" arrivalPos="max" />
    <trip id="478" depart="364.00" from="s" to="t" departLane="best" departSpeed="max" departPos="base" arrivalPos="max" />
    <trip id="482" depart="366.00" from="s" to="t" departLane="best" departSpeed="max" departPos="base" arrivalPos="max" />
    <trip id="486" depart="368.00" from="s" to="t" departLane="best" departSpeed="max" departPos="base" arrivalPos="max" />
    <trip id="490" depart="370.00" from="s" to="t" departLane="best" departSpeed="max" departPos="base" arrivalPos="max" />
    <trip id="494" depart="372.00" from="s" to="t" departLane="best" departSpeed="max" departPos="base" arrivalPos="max" />
    <trip id="498" depart="374.00" from="s" to="t" departLane="best" departSpeed="max" departPos="base" arrivalPos="max" />
    <trip id="502" depart="376.00" from="s" to="t" departLane="best" departSpeed="max" departPos="base" arrivalPos="max" />
    <trip id="506" depart="378.00" from="s" to="t" departLane="best" departSpeed="max" departPos="base" arrivalPos="max" />
    <trip id="510" depart="380.00" from="s" to="t" departLane="best" departSpeed="max" departPos="base" arrivalPos="max" />
    <trip id="514" depart="382.00" from="s" to="t" departLane="best" departSpeed="max" departPos="base" arrivalPos="max" />
    <trip id="518" depart="384.00" from="s" to="t" departLane="best" departSpeed="max" departPos="base" arrivalPos="max" />
    <trip id="522" depart="386.00" from="s" to="t" departLane="best" departSpeed="max" departPos="base" arrivalPos="max" />
    <trip id="526" depart="388.00" from="s" to="t" departLane="best" departSpeed="max" departPos="base" arrivalPos="max" />
    <trip id="530" depart="390.00" from="s" to="t" departLane="best" departSpeed="max" departPos="base" arrivalPos="max" />
    <trip id="534" depart="392.00" from="s" to="t" departLane="best" departSpeed="max" departPos="base" arrivalPos="max" />
    <trip id="538" depart="394.00" from="s" to="t" departLane="best" departSpeed="max" departPos="base" arrivalPos="max" />
    <trip id="542" depart="396.00" from="s" to="t" departLane="best" departSpeed="max" departPos="base" arrivalPos="max" />
    <trip id="546" depart="398.00" from="s" to="t" departLane="best" departSpeed="max" departPos="base" arrivalPos="max" />
    <trip id="550" depart="400.00" from="s" to="t" departLane="best" departSpeed="max" departPos="base" arrivalPos="max" />
    <trip id="554" depart="402.00" from="s" to="t" departLane="best" departSpeed="max" departPos="base" arrivalPos="max" />
    <trip id="558" depart="404.00" from="s" to="t" departLane="best" departSpeed="max" departPos="base" arrivalPos="max" />
    <trip id="562" depart="406.00" from="s" to="t" departLane="best" departSpeed="max" departPos="base" arrivalPos="max" />
    <trip id="566" depart="408.00" from="s" to="t" departLane="best" departSpeed="max" departPos="base" arrivalPos="max" />
    <trip id="570" depart="410.00" from="s" to="t" departLane="best" departSpeed="max" departPos="base" arrivalPos="max" />
    <trip id="574" depart="412.00" from="s" to="t" departLane="best" departSpeed="max" departPos="base" arrivalPos="max" />
    <trip id="578" depart="414.00" from="s" to="t" departLane="best" departSpeed="max" departPos="base" arrivalPos="max" />
    <trip id="582" depart="416.00" from="s" to="t" departLane="best" departSpeed="max" departPos="base" arrivalPos="max" />
    <trip id="586" depart="418.00" from="s" to="t" departLane="best" departSpeed="max" departPos="base" arrivalPos="max" />
    <trip id="590" depart="420.00" from="s" to="t" departLane="best" departSpeed="max" departPos="base" arrivalPos="max" />
    <trip id="594" depart="422.00" from="s" to="t" departLane="best" departSpeed="max" departPos="base" arrivalPos="max" />
    <trip id="598" depart="424.00" from="s" to="t" departLane="best" departSpeed="max" departPos="base" arrivalPos="max" />
    <trip id="602" depart="426.00" from="s" to="t" departLane="best" departSpeed="max" departPos="base" arrivalPos="max" />
    <trip id="606" depart="428.00" from="s" to="t" departLane="best" departSpeed="max" departPos="base" arrivalPos="max" />
    <trip id="610" depart="430.00" from="s" to="t" departLane="best" departSpeed="max" departPos="base" arrivalPos="max" />