<?xml version='1.0' encoding='utf-8'?>
<routes>
    <trip id="0" depart="0.00" from="s" to="t" departLane="best" departSpeed="max" departPos="base" arrivalPos="max" />
    <trip id="14" depart="12.00" from="s" to="t" departLane="best" departSpeed="max" departPos="base" arrivalPos="max" />
    <trip id="28" depart="24.00" from="s" to="t" departLane="best" departSpeed="max" departPos="base" arrivalPos="max" />
    <trip id="42" depart="36.00" from="s" to="t" departLane="best" departSpeed="max" departPos="base" arrivalPos="max" />
    <trip id="56" depart="48.00" from="s" to="t" departLane="best" departSpeed="max" departPos="base" arrivalPos="max" />
    <trip id="70" depart="60.00" from="s" to="t" departLane="best" departSpeed="max" departPos="base" arrivalPos="max" />
    <trip id="84" depart="72.00" from="s" to="t" departLane="best" departSpeed="max" departPos="base" arrivalPos="max" />
    <trip id="98" depart="84.00" from="s" to="t" departLane="best" departSpeed="max" departPos="base" arrivalPos="max" />
    <trip id="112" depart="96.00" from="s" to="t" departLane="best" departSpeed="max" departPos="base" arrivalPos="max" />
    <trip id="126" depart="108.00" from="s" to="t" departLane="best" departSpeed="max" departPos="base" arrivalPos="max" />
    <trip id="140" depart="120.00" from="s" to="t" departLane="best" departSpeed="max" departPos="base" arrivalPos="max" />
    <trip id="154" depart="132.00" from="s" to="t" departLane="best" departSpeed="max" departPos="base" arrivalPos="max" />
    <trip id="168" depart="144.00" from="s" to="t" departLane="best" departSpeed="max" departPos="base" arrivalPos="max" />
    <trip id="182" depart="156.00" from="s" to="t" departLane="best" departSpeed="max" departPos="base" arrivalPos="max" />
    <trip id="196" depart="168.00" from="s" to="t" departLane="best" departSpeed="max" departPos="base" arrivalPos="max" />
    <trip id="210" depart="180.00" from="s" to="t" departLane="best" departSpeed="max" departPos="base" arrivalPos="max" />
    <trip id="224" depart="192.00" from="s" to="t" departLane="best" departSpeed="max" departPos="base" arrivalPos="max" />
    <trip id="238" depart="204.00" from="s" to="t" departLane="best" departSpeed="max" departPos="base" arrivalPos="max" />
    <trip id="252" depart="216.00" from="s" to="t" departLane="best" departSpeed="max" departPos="base" arrivalPos="max" />
    <trip id="266" depart="228.00" from="s" to="t" departLane="best" departSpeed="max" departPos="base" arrivalPos="max" />
    <trip id="280" depart="240.00" from="s" to="t" departLane="best" departSpeed="max" departPos="base" arrivalPos="max" />
    <trip id="294" depart="252.00" from="s" to="t" departLane="best" departSpeed="max" departPos="base" arrivalPos="max" />
    <trip id="308" depart="264.00" from="s" to="t" departLane="best" departSpeed="max" departPos="base" arrivalPos="max" />
    <trip id="322" depart="276.00" from="s" to="t" departLane="best" departSpeed="max" departPos="base" arrivalPos="max" />
    <trip id="336" depart="288.00" from="s" to="t" departLane="best" departSpeed="max" departPos="base" arrivalPos="max" />
    <trip id="350" depart="300.00" from="s" to="t" departLane="best" departSpeed="max" departPos="base" arrivalPos="max" />
    <trip id="351" depart="300.00" from="sb" to="t" departLane="best" departSpeed="max" departPos="base" arrivalPos="max" />
    <trip id="354" depart="302.00" from="s" to="t" departLane="best" departSpeed="max" departPos="base" arrivalPos="max" />
    <trip id="355" depart="302.00" from="sb" to="t" departLane="best" departSpeed="max" departPos="base" arrivalPos="max" />
    <trip id="358" depart="304.00" from="s" to="t" departLane="best" departSpeed="max" departPos="base" arrivalPos="max" />
    <trip id="359" depart="304.00" from="sb" to="t" departLane="best" departSpeed="max" departPos="base" arrivalPos="max" />
    <trip id="362" depart="306.00" from="s" to="t" departLane="best" departSpeed="max" departPos="base" arrivalPos="max" />
    <trip id="363" depart="306.00" from="sb" to="t" departLane="best" departSpeed="max" departPos="base" arrivalPos="max" />
    <trip id="366" depart="308.00" from="s" to="t" departLane="best" departSpeed="max" departPos="base" arrivalPos="max" />
    <trip id="367" depart="308.00" from="sb" to="t" departLane="best" departSpeed="max" departPos="base" arrivalPos="max" />
    <trip id="370" depart="310.00" from="s" to="t" departLane="best" departSpeed="max" departPos="base" arrivalPos="max" />
    <trip id="371" depart="310.00" from="sb" to="t" departLane="best" departSpeed="max" departPos="base" arrivalPos="max" />
    <trip id="374" depart="312.00" from="s" to="t" departLane="best" departSpeed="max" departPos="base" arrivalPos="max" />
    <trip id="375" depart="312.00" from="sb" to="t" departLane="best" departSpeed="max" departPos="base" arrivalPos="max" />
    <trip id="378" depart="314.00" from="s" to="t" departLane="best" departSpeed="max" departPos="base" arrivalPos="max" />
    <trip id="379" depart="314.00" from="sb" to="t" departLane="best" departSpeed="max" departPos="base" arrivalPos="max" />
    <trip id="382" depart="316.00" from="s" to="t" departLane="best" departSpeed="max" departPos="base" arrivalPos="max" />
    <trip id="383" depart="316.00" from="sb" to="t" departLane="best" departSpeed="max" departPos="base" arrivalPos="max" />
    <trip id="386" depart="318.00" from="s" to="t" departLane="best" departSpeed="max" departPos="base" arrivalPos="max" />
    <trip id="387" depart="318.00" from="sb" to="t" departLane="best" departSpeed="max" departPos="base" arrivalPos="max" />
    <trip id="390" depart="320.00" from="s" to="t" departLane="best" departSpeed="max" departPos="base" arrivalPos="max" />
    <trip id="391" depart="320.00" from="sb" to="t" departLane="best" departSpeed="max" departPos="base" arrivalPos="max" />
    <trip id="394" depart="322.00" from="s" to="t" departLane="best" departSpeed="max" departPos="base" arrivalPos="max" />
    <trip id="395" depart="322.00" from="sb" to="t" departLane="best" departSpeed="max" departPos="base" arrivalPos="max" />
    <trip id="398" depart="324.00" from="s" to="t" departLane="best" departSpeed="max" departPos="base" arrivalPos="max" />
    <trip id="399" depart="324.00" from="sb" to="t" departLane="best" departSpeed="max" departPos="base" arrivalPos="max" />
    <trip id="402" depart="326.00" from="s" to="t" departLane="best" departSpeed="max" departPos="base" arrivalPos="max" />
    <trip id="403" depart="326.00" from="sb" to="t" departLane="best" departSpeed="max" departPos="base" arrivalPos="max" />
    <trip id="406" depart="328.00" from="s" to="t" departLane="best" departSpeed="max" departPos="base" arrivalPos="max" />
    <trip id="407" depart="328.00" from="sb" to="t" departLane="best" departSpeed="max" departPos="base" arrivalPos="max" />
    <trip id="410" depart="330.00" from="s" to="t" departLane="best" departSpeed="max" departPos="base" arrivalPos="max" />
    <trip id="411" depart="330.00" from="sb" to="t" departLane="best" departSpeed="max" departPos="base" arrivalPos="max" />
    <trip id="414" depart="332.00" from="s" to="t" departLane="best" departSpeed="max" departPos="base" arrivalPos="max" />
    <trip id="415" depart="332.00" from="sb" to="t" departLane="best" departSpeed="max" departPos="base" arrivalPos="max" />
    <trip id="418" depart="334.00" from="s" to="t" departLane="best" departSpeed="max" departPos="base" arrivalPos="max" />
    <trip id="419" depart="334.00" from="sb" to="t" departLane="best" departSpeed="max" departPos="base" arrivalPos="max" />
    <trip id="422" depart="336.00" from="s" to="t" departLane="best" departSpeed="max" departPos="base" arrivalPos="max" />
    <trip id="423" depart="336.00" from="sb" to="t" departLane="best" departSpeed="max" departPos="base" arrivalPos="max" />
    <trip id="426" depart="338.00" from="s" to="t" departLane="best" departSpeed="max" departPos="base" arrivalPos="max" />
    <trip id="427" depart="338.00" from="sb" to="t" departLane="best" departSpeed="max" departPos="base" arrivalPos="max" />
    <trip id="430" depart="340.00" from="s" to="t" departLane="best" departSpeed="max" departPos="base" arrivalPos="max" />
    <trip id="431" depart="340.00" from="sb" to="t" departLane="best" departSpeed="max" departPos="base" arrivalPos="max" />
    <trip id="434" depart="342.00" from="s" to="t" departLane="best" departSpeed="max" departPos="base" arrivalPos="max" />
    <trip id="435" depart="342.00" from="sb" to="t" departLane="best" departSpeed="max" departPos="base" arrivalPos="max" />
    <trip id="438" depart="344.00" from="s" to="t" departLane="best" departSpeed="max" departPos="base" arrivalPos="max" />
    <trip id="439" depart="344.00" from="sb" to="t" departLane="best" departSpeed="max" departPos="base" arrivalPos="max" />
    <trip id="442" depart="346.00" from="s" to="t" departLane="best" departSpeed="max" departPos="base" arrivalPos="max" />
    <trip id="443" depart="346.00" from="sb" to="t" departLane="best" departSpeed="max" departPos="base" arrivalPos="max" />
    <trip id="446" depart="348.00" from="s" to="t" departLane="best" departSpeed="max" departPos="base" arrivalPos="max" />
    <trip id="447" depart="348.00" from="sb" to="t" departLane="best" departSpeed="max" departPos="base" arrivalPos="max" />
    <trip id="450" depart="350.00" from="s" to="t" departLane="best" departSpeed="max" departPos="base" arrivalPos="max" />
    <trip id="451" depart="350.00" from="sb" to="t" departLane="best" departSpeed="max" departPos="base" arrivalPos="max" />
    <trip id="454" depart="352.00" from="s" to="t" departLane="best" departSpeed="max" departPos="base" arrivalPos="max" />
    <trip id="455" depart="352.00" from="sb" to="t" departLane="best" departSpeed="max" departPos="base" arrivalPos="max" />
    <trip id="458" depart="354.00" from="s" to="t" departLane="best" departSpeed="max" departPos="base" arrivalPos="max" />
    <trip id="459" depart="354.00" from="sb" to="t" departLane="best" departSpeed="max" departPos="base" arrivalPos="max" />
    <trip id="462" depart="356.00" from="s" to="t" departLane="best" departSpeed="max" departPos="base" arrivalPos="max" />
    <trip id="463" depart="356.00" from="sb" to="t" departLane="best" departSpeed="max" departPos="base" arrivalPos="max" />
    <trip id="466" depart="358.00" from="s" to="t" departLane="best" departSpeed="max" departPos="base" arrivalPos="max" />
    <trip id="467" depart="358.00" from="sb" to="t" departLane="best" departSpeed="max" departPos="base" arrivalPos="max" />
    <trip id="470" depart="360.00" from="s" to="t" departLane="best" departSpeed="max" departPos="base" arrivalPos="max" />
    <trip id="471" depart="360.00" from="sb" to="t" departLane="best" departSpeed="max" departPos="base" arrivalPos="max" />
    <trip id="474" depart="362.00" from="s" to="t" departLane="best" departSpeed="max" departPos="base" arrivalPos="max" />
    <trip id="475" depart="362.00" from="sb" to="t" departLane="best" departSpeed="max" departPos="base" arrivalPos="max" />
    <trip id="478" depart="364.00" from="s" to="t" departLane="best" departSpeed="max" departPos="base" arrivalPos="max" />
    <trip id="479" depart="364.00" from="sb" to="t" departLane="best" departSpeed="max" departPos="base" arrivalPos="max" />
    <trip id="482" depart="366.00" from="s" to="t" departLane="best" departSpeed="max" departPos="base" arrivalPos="max" />
    <trip id="483" depart="366.00" from="sb" to="t" departLane="best" departSpeed="max" departPos="base" arrivalPos="max" />
    <trip id="486" depart="368.00" from="s" to="t" departLane="best" departSpeed="max" departPos="base" arrivalPos="max" />
    <trip id="487" depart="368.00" from="sb" to="t" departLane="best" departSpeed="max" departPos="base" arrivalPos="max" />
    <trip id="490" depart="370.00" from="s" to="t" departLane="best" departSpeed="max" departPos="base" arrivalPos="max" />
    <trip id="491" depart="370.00" from="sb" to="t" departLane="best" departSpeed="max" departPos="base" arrivalPos="max" />
    <trip id="494" depart="372.00" from="s" to="t" departLane="best" departSpeed="max" departPos="base" arrivalPos="max" />
    <trip id="495" depart="372.00" from="sb" to="t" departLane="best" departSpeed="max" departPos="base" arrivalPos="max" />
    <trip id="498" depart="374.00" from="s" to="t" departLane="best" departSpeed="max" departPos="base" arrivalPos="max" />
    <trip id="499" depart="374.00" from="sb" to="t" departLane="best" departSpeed="max" departPos="base" arrivalPos="max" />
    <trip id="502" depart="376.00" from="s" to="t" departLane="best" departSpeed="max" departPos="base" arrivalPos="max" />
    <trip id="503" depart="376.00" from="sb" to="t" departLane="best" departSpeed="max" departPos="base" arrivalPos="max" />
    <trip id="506" depart="378.00" from="s" to="t" departLane="best" departSpeed="max" departPos="base" arrivalPos="max" />
    <trip id="507" depart="378.00" from="sb" to="t" departLane="best" departSpeed="max" departPos="base" arrivalPos="max" />
    <trip id="510" depart="380.00" from="s" to="t" departLane="best" departSpeed="max" departPos="base" arrivalPos="max" />
    <trip id="511" depart="380.00" from="sb" to="t" departLane="best" departSpeed="max" departPos="base" arrivalPos="max" />
    <trip id="514" depart="382.00" from="s" to="t" departLane="best" departSpeed="max" departPos="base" arrivalPos="max" />
    <trip id="515" depart="382.00" from="sb" to="t" departLane="best" departSpeed="max" departPos="base" arrivalPos="max" />
    <trip id="518" depart="384.00" from="s" to="t" departLane="best" departSpeed="max" departPos="base" arrivalPos="max" />
    <trip id="519" depart="384.00" from="sb" to="t" departLane="best" departSpeed="max" departPos="base" arrivalPos="max" />
    <trip id="522" depart="386.00" from="s" to="t" departLane="best" departSpeed="max" departPos="base" arrivalPos="max" />
    <trip id="523" depart="386.00" from="sb" to="t" departLane="best" departSpeed="max" departPos="base" arrivalPos="max" />
    <trip id="526" depart="388.00" from="s" to="t" departLane="best" departSpeed="max" departPos="base" arrivalPos="max" />
    <trip id="527" depart="388.00" from="sb" to="t" departLane="best" departSpeed="max" departPos="base" arrivalPos="max" />
    <trip id="530" depart="390.00" from="s" to="t" departLane="best" departSpeed="max" departPos="base" arrivalPos="max" />
    <trip id="531" depart="390.00" from="sb" to="t" departLane="best" departSpeed="max" departPos="base" arrivalPos="max" />
    <trip id="534" depart="392.00" from="s" to="t" departLane="best" departSpeed="max" departPos="base" arrivalPos="max" />
    <trip id="535" depart="392.00" from="sb" to="t" departLane="best" departSpeed="max" departPos="base" arrivalPos="max" />
    <trip id="538" depart="394.00" from="s" to="t" departLane="best" departSpeed="max" departPos="base" arrivalPos="max" />
    <trip id="539" depart="394.00" from="sb" to="t" departLane="best" departSpeed="max" departPos="base" arrivalPos="max" />
    <trip id="542" depart="396.00" from="s" to="t" departLane="best" departSpeed="max" departPos="base" arrivalPos="max" />
    <trip id="543" depart="396.00" from="sb" to="t" departLane="best" departSpeed="max" departPos="base" arrivalPos="max" />
    <trip id="546" depart="398.00" from="s" to="t" departLane="best" departSpeed="max" departPos="base" arrivalPos="max" />
    <trip id="547" depart="398.00" from="sb" to="t" departLane="best" departSpeed="max" departPos="base" arrivalPos="max" />
    <trip id="550" depart="400.00" from="s" to="t" departLane="best" departSpeed="max" departPos="base" arrivalPos="max" />
    <trip id="551" depart="400.00" from="sb" to="t" departLane="best" departSpeed="max" departPos="base" arrivalPos="max" />
    <trip id="554" depart="402.00" from="s" to="t" departLane="best" departSpeed="max" departPos="base" arrivalPos="max" />
    <trip id="555" depart="402.00" from="sb" to="t" departLane="best" departSpeed="max" departPos="base" arrivalPos="max" />
    <trip id="558" depart="404.00" from="s" to="t" departLane="best" departSpeed="max" departPos="base" arrivalPos="max" />
    <trip id="559" depart="404.00" from="sb" to="t" departLane="best" departSpeed="max" departPos="base" arrivalPos="max" />
    <trip id="562" depart="406.00" from="s" to="t" departLane="best" departSpeed="max" departPos="base" arrivalPos="max" />
    <trip id="563" depart="406.00" from="sb" to="t" departLane="best" departSpeed="max" departPos="base" arrivalPos="max" />
    <trip id="566" depart="408.00" from="s" to="t" departLane="best" departSpeed="max" departPos="base" arrivalPos="max" />
    <trip id="567" depart="408.00" from="sb" to="t" departLane="best" departSpeed="max" departPos="base" arrivalPos="max" />
    <trip id="570" depart="410.00" from="s" to="t" departLane="best" departSpeed="max" departPos="base" arrivalPos="max" />
    <trip id="571" depart="410.00" from="sb" to="t" departLane="best" departSpeed="max" departPos="base" arrivalPos="max" />
    <trip id="574" depart="412.00" from="s" to="t" departLane="best" departSpeed="max" departPos="base" arrivalPos="max" />
    <trip id="575" depart="412.00" from="sb" to="t" departLane="best" departSpeed="max" departPos="base" arrivalPos="max" />
    <trip id="578" depart="414.00" from="s" to="t" departLane="best" departSpeed="max" departPos="base" arrivalPos="max" />
    <trip id="579" depart="414.00" from="sb" to="t" departLane="best" departSpeed="max" departPos="base" arrivalPos="max" />
    <trip id="582" depart="416.00" from="s" to="t" departLane="best" departSpeed="max" departPos="base" arrivalPos="max" />
    <trip id="583" depart="416.00" from="sb" to="t" departLane="best" departSpeed="max" departPos="base" arrivalPos="max" />
    <trip id="586" depart="418.00" from="s" to="t" departLane="best" departSpeed="max" departPos="base" arrivalPos="max" />
    <trip id="587" depart="418.00" from="sb" to="t" departLane="best" departSpeed="max" departPos="base" arrivalPos="max" />
    <trip id="590" depart="420.00" from="s" to="t" departLane="best" departSpeed="max" departPos="base" arrivalPos="max" />
    <trip id="591" depart="420.00" from="sb" to="t" departLane="best" departSpeed="max" departPos="base" arrivalPos="max" />
    <trip id="594" depart="422.00" from="s" to="t" departLane="best" departSpeed="max" departPos="base" arrivalPos="max" />
    <trip id="595" depart="422.00" from="sb" to="t" departLane="best" departSpeed="max" departPos="base" arrivalPos="max" />
    <trip id="598" depart="424.00" from="s" to="t" departLane="best" departSpeed="max" departPos="base" arrivalPos="max" />
    <trip id="599" depart="424.00" from="sb" to="t" departLane="best" departSpeed="max" departPos="base" arrivalPos="max" />
    <trip id="602" depart="426.00" from="s" to="t" departLane="best" departSpeed="max" departPos="base" arrivalPos="max" />
    <trip id="603" depart="426.00" from="sb" to="t" departLane="best" departSpeed="max" departPos="base" arrivalPos="max" />
    <trip id="606" depart="428.00" from="s" to="t" departLane="best" departSpeed="max" departPos="base" arrivalPos="max" />
    <trip id="607" depart="428.00" from="sb" to="t" departLane="best" departSpeed="max" departPos="base" arrivalPos="max" />
    <trip id="610" depart="430.00" from="s" to="t" departLane="best" departSpeed="max" departPos="base" arrivalPos="max" />
    <trip id="611" depart="430.00" from="sb" to="t" departLane="best" departSpeed="max" departPos="base" arrivalPos="max" />
    <trip id="614" depart="432.00" from="s" to="t" departLane="best" departSpeed="max" departPos="base" arrivalPos="max" />
    <trip id="615" depart="432.00" from="sb" to="t" departLane="best" departSpeed="max" departPos="base" arrivalPos="max" />
    <trip id="618" depart="434.00" from="s" to="t" departLane="best" departSpeed="max" departPos="base" arrivalPos="max" />
    <trip id="619" depart="434.00" from="sb" to="t" departLane="best" departSpeed="max" departPos="base" arrivalPos="max" />
    <trip id="622" depart="436.00" from="s" to="t" departLane="best" departSpeed="max" departPos="base" arrivalPos="max" />
    <trip id="623" depart="436.00" from="sb" to="t" departLane="best" departSpeed="max" departPos="base" arrivalPos="max" />
    <trip id="626" depart="438.00" from="s" to="t" departLane="best" departSpeed="max" departPos="base" arrivalPos="max" />
    <trip id="627" depart="438.00" from="sb" to="t" departLane="best" departSpeed="max" departPos="base" arrivalPos="max" />
    <trip id="630" depart="440.00" from="s" to="t" departLane="best" departSpeed="max" departPos="base" arrivalPos="max" />
    <trip id="631" depart="440.00" from="sb" to="t" departLane="best" departSpeed="max" departPos="base" arrivalPos="max" />
    <trip id="634" depart="442.00" from="s" to="t" departLane="best" departSpeed="max" departPos="base" arrivalPos="max" />
    <trip id="635" depart="442.00" from="sb" to="t" departLane="best" departSpeed="max" departPos="base" arrivalPos="max" />
    <trip id="638" depart="444.00" from="s" to="t" departLane="best" departSpeed="max" departPos="base" arrivalPos="max" />
    <trip id="639" depart="444.00" from="sb" to="t" departLane="best" departSpeed="max" departPos="base" arrivalPos="max" />
    <trip id="642" depart="446.00" from="s" to="t" departLane="best" departSpeed="max" departPos="base" arrivalPos="max" />
    <trip id="643" depart="446.00" from="sb" to="t" departLane="best" departSpeed="max" departPos="base" arrivalPos="max" />
    <trip id="646" depart="448.00" from="s" to="t" departLane="best" departSpeed="max" departPos="base" arrivalPos="max" />
    <trip id="647" depart="448.00" from="sb" to="t" departLane="best" departSpeed="max" departPos="base" arrivalPos="max" />
    <trip id="650" depart="450.00" from="s" to="t" departLane="best" departSpeed="max" departPos="base" arrivalPos="max" />
    <trip id="651" depart="450.00" from="sb" to="t" departLane="best" departSpeed="max" departPos="base" arrivalPos="max" />
    <trip id="654" depart="452.00" from="s" to="t" departLane="best" departSpeed="max" departPos="base" arrivalPos="max" />
    <trip id="655" depart="452.00" from="sb" to="t" departLane="best" departSpeed="max" departPos="base" arrivalPos="max" />
    <trip id="658" depart="454.00" from="s" to="t" departLane="best" departSpeed="max" departPos="base" arrivalPos="max" />
    <trip id="659" depart="454.00" from="sb" to="t" departLane="best" departSpeed="max" departPos="base" arrivalPos="max" />
    <trip id="662" depart="456.00" from="s" to="t" departLane="best" departSpeed="max" departPos="base" arrivalPos="max" />
    <trip id="663" depart="456.00" from="sb" to="t" departLane="best" departSpeed="max" departPos="base" arrivalPos="max" />
    <trip id="666" depart="458.00" from="s" to="t" departLane="best" departSpeed="max" departPos="base" arrivalPos="max" />
    <trip id="667" depart="458.00" from="sb" to="t" departLane="best" departSpeed="max" departPos="base" arrivalPos="max" />
    <trip id="670" depart="460.00" from="s" to="t" departLane="best" departSpeed="max" departPos="base" arrivalPos="max" />
    <trip id="671" depart="460.00" from="sb" to="t" departLane="best" departSpeed="max" departPos="base" arrivalPos="max" />
    <trip id="674" depart="462.00" from="s" to="t" departLane="best" departSpeed="max" departPos="base" arrivalPos="max" />
    <trip id="675" depart="462.00" from="sb" to="t" departLane="best" departSpeed="max" departPos="base" arrivalPos="max" />
    <trip id="678" depart="464.00" from="s" to="t" departLane="best" departSpeed="max" departPos="base" arrivalPos="max" />
    <trip id="679" depart="464.00" from="sb" to="t" departLane="best" departSpeed="max" departPos="base" arrivalPos="max" />
    <trip id="682" depart="466.00" from="s" to="t" departLane="best" departSpeed="max" departPos="base" arrivalPos="max" />
    <trip id="683" depart="466.00" from="sb" to="t" departLane="best" departSpeed="max" departPos="base" arrivalPos="max" />
    <trip id="686" depart="468.00" from="s" to="t" departLane="best" departSpeed="max" departPos="base" arrivalPos="max" />
    <trip id="687" depart="468.00" from="sb" to="t" departLane="best" departSpeed="max" departPos="base" arrivalPos="max" />
    <trip id="690" depart="470.00" from="s" to="t" departLane="best" departSpeed="max" departPos="base" arrivalPos="max" />
    <trip id="691" depart="470.00" from="sb" to="t" departLane="best" departSpeed="max" departPos="base" arrivalPos="max" />
    <trip id="694" depart="472.00" from="s" to="t" departLane="best" departSpeed="max" departPos="base" arrivalPos="max" />
    <trip id="695" depart="472.00" from="sb" to="t" departLane="best" departSpeed="max" departPos="base" arrivalPos="max" />
    <trip id="698" depart="474.00" from="s" to="t" departLane="best" departSpeed="max" departPos="base" arrivalPos="max" />
    <trip id="699" depart="474.00" from="sb" to="t" departLane="best" departSpeed="max" departPos="base" arrivalPos="max" />
    <trip id="702" depart="476.00" from="s" to="t" departLane="best" departSpeed="max" departPos="base" arrivalPos="max" />
    <trip id="703" depart="476.00" from="sb" to="t" departLane="best" departSpeed="max" departPos="base" arrivalPos="max" />
    <trip id="706" depart="478.00" from="s" to="t" departLane="best" departSpeed="max" departPos="base" arrivalPos="max" />
    <trip id="707" depart="478.00" from="sb" to="t" departLane="best" departSpeed="max" departPos="base" arrivalPos="max" />
    <trip id="710" depart="480.00" from="s" to="t" departLane="best" departSpeed="max" departPos="base" arrivalPos="max" />
    <trip id="711" depart="480.00" from="sb" to="t" departLane="best" departSpeed="max" departPos="base" arrivalPos="max" />
    <trip id="714" depart="482.00" from="s" to="t" departLane="best" departSpeed="max" departPos="base" arrivalPos="max" />
    <trip id="715" depart="482.00" from="sb" to="t" departLane="best" departSpeed="max" departPos="base" arrivalPos="max" />
    <trip id="718" depart="484.00" from="s" to="t" departLane="best" departSpeed="max" departPos="base" arrivalPos="max" />
    <trip id="719" depart="484.00" from="sb" to="t" departLane="best" departSpeed="max" departPos="base" arrivalPos="max" />
    <trip id="722" depart="486.00" from="s" to="t" departLane="best" departSpeed="max" departPos="base" arrivalPos="max" />
    <trip id="723" depart="486.00" from="sb" to="t" departLane="best" departSpeed="max" departPos="base" arrivalPos="max" />
    <trip id="726" depart="488.00" from="s" to="t" departLane="best" departSpeed="max" departPos="base" arrivalPos="max" />
    <trip id="727" depart="488.00" from="sb" to="t" departLane="best" departSpeed="max" departPos="base" arrivalPos="max" />
    <trip id="730" depart="490.00" from="s" to="t" departLane="best" departSpeed="max" departPos="base" arrivalPos="max" />
    <trip id="731" depart="490.00" from="sb" to="t" departLane="best" departSpeed="max" departPos="base" arrivalPos="max" />
    <trip id="734" depart="492.00" from="s" to="t" departLane="best" departSpeed="max" departPos="base" arrivalPos="max" />
    <trip id="735" depart="492.00" from="sb" to="t" departLane="best" departSpeed="max" departPos="base" arrivalPos="max" />
    <trip id="738" depart="494.00" from="s" to="t" departLane="best" departSpeed="max" departPos="base" arrivalPos="max" />
    <trip id="739" depart="494.00" from="sb" to="t" departLane="best" departSpeed="max" departPos="base" arrivalPos="max" />
    <trip id="742" depart="496.00" from="s" to="t" departLane="best" departSpeed="max" departPos="base" arrivalPos="max" />
    <trip id="743" depart="496.00" from="sb" to="t" departLane="best" departSpeed="max" departPos="base" arrivalPos="max" />
    <trip id="746" depart="498.00" from="s" to="t" departLane="best" departSpeed="max" departPos="base" arrivalPos="max" />
    <trip id="747" depart="498.00" from="sb" to="t" departLane="best" departSpeed="max" departPos="base" arrivalPos="max" />
    <trip id="750" depart="500.00" from="s" to="t" departLane="best" departSpeed="max" departPos="base" arrivalPos="max" />
    <trip id="751" depart="500.00" from="sb" to="t" departLane="best" departSpeed="max" departPos="base" arrivalPos="max" />
    <trip id="754" depart="502.00" from="s" to="t" departLane="best" departSpeed="max" departPos="base" arrivalPos="max" />
    <trip id="755" depart="502.00" from="sb" to="t" departLane="best" departSpeed="max" departPos="base" arrivalPos="max" />
    <trip id="758" depart="504.00" from="s" to="t" departLane="best" departSpeed="max" departPos="base" arrivalPos="max" />
    <trip id="759" depart="504.00" from="sb" to="t" departLane="best" departSpeed="max" departPos="base" arrivalPos="max" />
    <trip id="762" depart="506.00" from="s" to="t" departLane="best" departSpeed="max" departPos="base" arrivalPos="max" />
    <trip id="763" depart="506.00" from="sb" to="t" departLane="best" departSpeed="max" departPos="base" arrivalPos="max" />
    <trip id="766" depart="508.00" from="s" to="t" departLane="best" departSpeed="max" departPos="base" arrivalPos="max" />
    <trip id="767" depart="508.00" from="sb" to="t" departLane="best" departSpeed="max" departPos="base" arrivalPos="max" />
    <trip id="770" depart="510.00" from="s" to="t" departLane="best" departSpeed="max" departPos="base" arrivalPos="max" />
    <trip id="771" depart="510.00" from="sb" to="t" departLane="best" departSpeed="max" departPos="base" arrivalPos="max" />
    <trip id="774" depart="512.00" from="s" to="t" departLane="best" departSpeed="max" departPos="base" arrivalPos="max" />
    <trip id="775" depart="512.00" from="sb" to="t" departLane="best" departSpeed="max" departPos="base" arrivalPos="max" />
    <trip id="778" depart="514.00" from="s" to="t" departLane="best" departSpeed="max" departPos="base" arrivalPos="max" />