<?xml version='1.0' encoding='utf-8'?>
<routes>
    <trip id="1" depart="0.00" from="s1" to="t" departLane="best" departSpeed="max"
        departPos="base" arrivalPos="max" />
    <trip id="2" depart="0.00" from="s2" to="t" departLane="best" departSpeed="max"
        departPos="base" arrivalPos="max" />
    <trip id="3" depart="1.50" from="s1" to="t" departLane="best" departSpeed="max"
        departPos="base" arrivalPos="max" />
    <trip id="4" depart="1.50" from="s2" to="t" departLane="best" departSpeed="max"
        departPos="base" arrivalPos="max" />
    <trip id="5" depart="3.00" from="s1" to="t" departLane="best" departSpeed="max"
        departPos="base" arrivalPos="max" />
    <trip id="6" depart="3.00" from="s2" to="t" departLane="best" departSpeed="max"
        departPos="base" arrivalPos="max" />
    <trip id="7" depart="4.50" from="s1" to="t" departLane="best" departSpeed="max"
        departPos="base" arrivalPos="max" />
    <trip id="8" depart="4.50" from="s2" to="t" departLane="best" departSpeed="max"
        departPos="base" arrivalPos="max" />
    <trip id="9" depart="6.00" from="s1" to="t" departLane="best" departSpeed="max"
        departPos="base" arrivalPos="max" />
    <trip id="10" depart="6.00" from="s2" to="t" departLane="best" departSpeed="max"
        departPos="base" arrivalPos="max" />
    <trip id="11" depart="7.50" from="s1" to="t" departLane="best" departSpeed="max"
        departPos="base" arrivalPos="max" />
    <trip id="12" depart="7.50" from="s2" to="t" departLane="best" departSpeed="max"
        departPos="base" arrivalPos="max" />
    <trip id="13" depart="9.00" from="s1" to="t" departLane="best" departSpeed="max"
        departPos="base" arrivalPos="max" />
    <trip id="14" depart="9.00" from="s2" to="t" departLane="best" departSpeed="max"
        departPos="base" arrivalPos="max" />
    <trip id="15" depart="10.50" from="s1" to="t" departLane="best" departSpeed="max"
        departPos="base" arrivalPos="max" />
    <trip id="16" depart="10.50" from="s2" to="t" departLane="best" departSpeed="max"
        departPos="base" arrivalPos="max" />
    <trip id="17" depart="12.00" from="s1" to="t" departLane="best" departSpeed="max"
        departPos="base" arrivalPos="max" />
    <trip id="18" depart="12.00" from="s2" to="t" departLane="best" departSpeed="max"
        departPos="base" arrivalPos="max" />
    <trip id="19" depart="13.50" from="s1" to="t" departLane="best" departSpeed="max"
        departPos="base" arrivalPos="max" />
    <trip id="20" depart="13.50" from="s2" to="t" departLane="best" departSpeed="max"
        departPos="base" arrivalPos="max" />
    <trip id="21" depart="15.00" from="s1" to="t" departLane="best" departSpeed="max"
        departPos="base" arrivalPos="max" />
    <trip id="22" depart="15.00" from="s2" to="t" departLane="best" departSpeed="max"
        departPos="base" arrivalPos="max" />
    <trip id="23" depart="16.50" from="s1" to="t" departLane="best" departSpeed="max"
        departPos="base" arrivalPos="max" />
    <trip id="24" depart="16.50" from="s2" to="t" departLane="best" departSpeed="max"
        departPos="base" arrivalPos="max" />
    <trip id="25" depart="18.00" from="s1" to="t" departLane="best" departSpeed="max"
        departPos="base" arrivalPos="max" />
    <trip id="26" depart="18.00" from="s2" to="t" departLane="best" departSpeed="max"
        departPos="base" arrivalPos="max" />
    <trip id="27" depart="19.50" from="s1" to="t" departLane="best" departSpeed="max"
        departPos="base" arrivalPos="max" />
    <trip id="28" depart="19.50" from="s2" to="t" departLane="best" departSpeed="max"
        departPos="base" arrivalPos="max" />
    <trip id="29" depart="21.00" from="s1" to="t" departLane="best" departSpeed="max"
        departPos="base" arrivalPos="max" />
    <trip id="30" depart="21.00" from="s2" to="t" departLane="best" departSpeed="max"
        departPos="base" arrivalPos="max" />
    <trip id="31" depart="22.50" from="s1" to="t" departLane="best" departSpeed="max"
        departPos="base" arrivalPos="max" />
    <trip id="32" depart="22.50" from="s2" to="t" departLane="best" departSpeed="max"
        departPos="base" arrivalPos="max" />
    <trip id="33" depart="24.00" from="s1" to="t" departLane="best" departSpeed="max"
        departPos="base" arrivalPos="max" />
    <trip id="34" depart="24.00" from="s2" to="t" departLane="best" departSpeed="max"
        departPos="base" arrivalPos="max" />
    <trip id="35" depart="25.50" from="s1" to="t" departLane="best" departSpeed="max"
        departPos="base" arrivalPos="max" />
    <trip id="36" depart="25.50" from="s2" to="t" departLane="best" departSpeed="max"
        departPos="base" arrivalPos="max" />
    <trip id="37" depart="27.00" from="s1" to="t" departLane="best" departSpeed="max"
        departPos="base" arrivalPos="max" />
    <trip id="38" depart="27.00" from="s2" to="t" departLane="best" departSpeed="max"
        departPos="base" arrivalPos="max" />
    <trip id="39" depart="28.50" from="s1" to="t" departLane="best" departSpeed="max"
        departPos="base" arrivalPos="max" />
    <trip id="40" depart="28.50" from="s2" to="t" departLane="best" departSpeed="max"
        departPos="base" arrivalPos="max" />
    <trip id="41" depart="30.00" from="s1" to="t" departLane="best" departSpeed="max"
        departPos="base" arrivalPos="max" />
    <trip id="42" depart="30.00" from="s2" to="t" departLane="best" departSpeed="max"
        departPos="base" arrivalPos="max" />
    <trip id="43" depart="31.50" from="s1" to="t" departLane="best" departSpeed="max"
        departPos="base" arrivalPos="max" />
    <trip id="44" depart="31.50" from="s2" to="t" departLane="best" departSpeed="max"
        departPos="base" arrivalPos="max" />
    <trip id="45" depart="33.00" from="s1" to="t" departLane="best" departSpeed="max"
        departPos="base" arrivalPos="max" />
    <trip id="46" depart="33.00" from="s2" to="t" departLane="best" departSpeed="max"
        departPos="base" arrivalPos="max" />
    <trip id="47" depart="34.50" from="s1" to="t" departLane="best" departSpeed="max"
        departPos="base" arrivalPos="max" />
    <trip id="48" depart="34.50" from="s2" to="t" departLane="best" departSpeed="max"
        departPos="base" arrivalPos="max" />
    <trip id="49" depart="36.00" from="s1" to="t" departLane="best" departSpeed="max"
        departPos="base" arrivalPos="max" />
    <trip id="50" depart="36.00" from="s2" to="t" departLane="best" departSpeed="max"
        departPos="base" arrivalPos="max" />
    <trip id="51" depart="37.50" from="s1" to="t" departLane="best" departSpeed="max"
        departPos="base" arrivalPos="max" />
    <trip id="52" depart="37.50" from="s2" to="t" departLane="best" departSpeed="max"
        departPos="base" arrivalPos="max" />
    <trip id="53" depart="39.00" from="s1" to="t" departLane="best" departSpeed="max"
        departPos="base" arrivalPos="max" />
    <trip id="54" depart="39.00" from="s2" to="t" departLane="best" departSpeed="max"
        departPos="base" arrivalPos="max" />
    <trip id="55" depart="40.50" from="s1" to="t" departLane="best" departSpeed="max"
        departPos="base" arrivalPos="max" />
    <trip id="56" depart="40.50" from="s2" to="t" departLane="best" departSpeed="max"
        departPos="base" arrivalPos="max" />
    <trip id="57" depart="42.00" from="s1" to="t" departLane="best" departSpeed="max"
        departPos="base" arrivalPos="max" />
    <trip id="58" depart="42.00" from="s2" to="t" departLane="best" departSpeed="max"
        departPos="base" arrivalPos="max" />
    <trip id="59" depart="43.50" from="s1" to="t" departLane="best" departSpeed="max"
        departPos="base" arrivalPos="max" />
    <trip id="60" depart="43.50" from="s2" to="t" departLane="best" departSpeed="max"
        departPos="base" arrivalPos="max" />
    <trip id="61" depart="45.00" from="s1" to="t" departLane="best" departSpeed="max"
        departPos="base" arrivalPos="max" />
    <trip id="62" depart="45.00" from="s2" to="t" departLane="best" departSpeed="max"
        departPos="base" arrivalPos="max" />
    <trip id="63" depart="46.50" from="s1" to="t" departLane="best" departSpeed="max"
        departPos="base" arrivalPos="max" />
    <trip id="64" depart="46.50" from="s2" to="t" departLane="best" departSpeed="max"
        departPos="base" arrivalPos="max" />
    <trip id="65" depart="48.00" from="s1" to="t" departLane="best" departSpeed="max"
        departPos="base" arrivalPos="max" />
    <trip id="66" depart="48.00" from="s2" to="t" departLane="best" departSpeed="max"
        departPos="base" arrivalPos="max" />
    <trip id="67" depart="49.50" from="s1" to="t" departLane="best" departSpeed="max"
        departPos="base" arrivalPos="max" />
    <trip id="68" depart="49.50" from="s2" to="t" departLane="best" departSpeed="max"
        departPos="base" arrivalPos="max" />
    <trip id="69" depart="51.00" from="s1" to="t" departLane="best" departSpeed="max"
        departPos="base" arrivalPos="max" />
    <trip id="70" depart="51.00" from="s2" to="t" departLane="best" departSpeed="max"
        departPos="base" arrivalPos="max" />
    <trip id="71" depart="52.50" from="s1" to="t" departLane="best" departSpeed="max"
        departPos="base" arrivalPos="max" />
    <trip id="72" depart="52.50" from="s2" to="t" departLane="best" departSpeed="max"
        departPos="base" arrivalPos="max" />
    <trip id="73" depart="54.00" from="s1" to="t" departLane="best" departSpeed="max"
        departPos="base" arrivalPos="max" />
    <trip id="74" depart="54.00" from="s2" to="t" departLane="best" departSpeed="max"
        departPos="base" arrivalPos="max" />
    <trip id="75" depart="55.50" from="s1" to="t" departLane="best" departSpeed="max"
        departPos="base" arrivalPos="max" />
    <trip id="76" depart="55.50" from="s2" to="t" departLane="best" departSpeed="max"
        departPos="base" arrivalPos="max" />
    <trip id="77" depart="57.00" from="s1" to="t" departLane="best" departSpeed="max"
        departPos="base" arrivalPos="max" />
    <trip id="78" depart="57.00" from="s2" to="t" departLane="best" departSpeed="max"
        departPos="base" arrivalPos="max" />
    <trip id="79" depart="58.50" from="s1" to="t" departLane="best" departSpeed="max"
        departPos="base" arrivalPos="max" />
    <trip id="80" depart="58.50" from="s2" to="t" departLane="best" departSpeed="max"
        departPos="base" arrivalPos="max" />
    <trip id="81" depart="60.00" from="s1" to="t" departLane="best" departSpeed="max"
        departPos="base" arrivalPos="max" />
    <trip id="82" depart="60.00" from="s2" to="t" departLane="best" departSpeed="max"
        departPos="base" arrivalPos="max" />
    <trip id="83" depart="61.50" from="s1" to="t" departLane="best" departSpeed="max"
        departPos="base" arrivalPos="max" />
    <trip id="84" depart="61.50" from="s2" to="t" departLane="best" departSpeed="max"
        departPos="base" arrivalPos="max" />
    <trip id="85" depart="63.00" from="s1" to="t" departLane="best" departSpeed="max"
        departPos="base" arrivalPos="max" />
    <trip id="86" depart="63.00" from="s2" to="t" departLane="best" departSpeed="max"
        departPos="base" arrivalPos="max" />
    <trip id="87" depart="64.50" from="s1" to="t" departLane="best" departSpeed="max"
        departPos="base" arrivalPos="max" />
    <trip id="88" depart="64.50" from="s2" to="t" departLane="best" departSpeed="max"
        departPos="base" arrivalPos="max" />
    <trip id="89" depart="66.00" from="s1" to="t" departLane="best" departSpeed="max"
        departPos="base" arrivalPos="max" />
    <trip id="90" depart="66.00" from="s2" to="t" departLane="best" departSpeed="max"
        departPos="base" arrivalPos="max" />
    <trip id="91" depart="67.50" from="s1" to="t" departLane="best" departSpeed="max"
        departPos="base" arrivalPos="max" />
    <trip id="92" depart="67.50" from="s2" to="t" departLane="best" departSpeed="max"
        departPos="base" arrivalPos="max" />
    <trip id="93" depart="69.00" from="s1" to="t" departLane="best" departSpeed="max"
        departPos="base" arrivalPos="max" />
    <trip id="94" depart="69.00" from="s2" to="t" departLane="best" departSpeed="max"
        departPos="base" arrivalPos="max" />
    <trip id="95" depart="70.50" from="s1" to="t" departLane="best" departSpeed="max"
        departPos="base" arrivalPos="max" />
    <trip id="96" depart="70.50" from="s2" to="t" departLane="best" departSpeed="max"
        departPos="base" arrivalPos="max" />
    <trip id="97" depart="72.00" from="s1" to="t" departLane="best" departSpeed="max"
        departPos="base" arrivalPos="max" />
    <trip id="98" depart="72.00" from="s2" to="t" departLane="best" departSpeed="max"
        departPos="base" arrivalPos="max" />
    <trip id="99" depart="73.50" from="s1" to="t" departLane="best" departSpeed="max"
        departPos="base" arrivalPos="max" />
    <trip id="100" depart="73.50" from="s2" to="t" departLane="best" departSpeed="max"
        departPos="base" arrivalPos="max" />
    <trip id="101" depart="75.00" from="s1" to="t" departLane="best" departSpeed="max"
        departPos="base" arrivalPos="max" />
    <trip id="102" depart="75.00" from="s2" to="t" departLane="best" departSpeed="max"
        departPos="base" arrivalPos="max" />
    <trip id="103" depart="76.50" from="s1" to="t" departLane="best" departSpeed="max"
        departPos="base" arrivalPos="max" />
    <trip id="104" depart="76.50" from="s2" to="t" departLane="best" departSpeed="max"
        departPos="base" arrivalPos="max" />
    <trip id="105" depart="78.00" from="s1" to="t" departLane="best" departSpeed="max"
        departPos="base" arrivalPos="max" />
    <trip id="106" depart="78.00" from="s2" to="t" departLane="best" departSpeed="max"
        departPos="base" arrivalPos="max" />
    <trip id="107" depart="79.50" from="s1" to="t" departLane="best" departSpeed="max"
        departPos="base" arrivalPos="max" />
    <trip id="108" depart="79.50" from="s2" to="t" departLane="best" departSpeed="max"
        departPos="base" arrivalPos="max" />
    <trip id="109" depart="81.00" from="s1" to="t" departLane="best" departSpeed="max"
        departPos="base" arrivalPos="max" />
    <trip id="110" depart="81.00" from="s2" to="t" departLane="best" departSpeed="max"
        departPos="base" arrivalPos="max" />
    <trip id="111" depart="82.50" from="s1" to="t" departLane="best" departSpeed="max"
        departPos="base" arrivalPos="max" />
    <trip id="112" depart="82.50" from="s2" to="t" departLane="best" departSpeed="max"
        departPos="base" arrivalPos="max" />
    <trip id="113" depart="84.00" from="s1" to="t" departLane="best" departSpeed="max"
        departPos="base" arrivalPos="max" />
    <trip id="114" depart="84.00" from="s2" to="t" departLane="best" departSpeed="max"
        departPos="base" arrivalPos="max" />
    <trip id="115" depart="85.50" from="s1" to="t" departLane="best" departSpeed="max"
        departPos="base" arrivalPos="max" />
    <trip id="116" depart="85.50" from="s2" to="t" departLane="best" departSpeed="max"
        departPos="base" arrivalPos="max" />
    <trip id="117" depart="87.00" from="s1" to="t" departLane="best" departSpeed="max"
        departPos="base" arrivalPos="max" />
    <trip id="118" depart="87.00" from="s2" to="t" departLane="best" departSpeed="max"
        departPos="base" arrivalPos="max" />
    <trip id="119" depart="88.50" from="s1" to="t" departLane="best" departSpeed="max"
        departPos="base" arrivalPos="max" />
    <trip id="120" depart="88.50" from="s2" to="t" departLane="best" departSpeed="max"
        departPos="base" arrivalPos="max" />
    <trip id="121" depart="90.00" from="s1" to="t" departLane="best" departSpeed="max"
        departPos="base" arrivalPos="max" />
    <trip id="122" depart="90.00" from="s2" to="t" departLane="best" departSpeed="max"
        departPos="base" arrivalPos="max" />
    <trip id="123" depart="91.50" from="s1" to="t" departLane="best" departSpeed="max"
        departPos="base" arrivalPos="max" />
    <trip id="124" depart="91.50" from="s2" to="t" departLane="best" departSpeed="max"
        departPos="base" arrivalPos="max" />
    <trip id="125" depart="93.00" from="s1" to="t" departLane="best" departSpeed="max"
        departPos="base" arrivalPos="max" />
    <trip id="126" depart="93.00" from="s2" to="t" departLane="best" departSpeed="max"
        departPos="base" arrivalPos="max" />
    <trip id="127" depart="94.50" from="s1" to="t" departLane="best" departSpeed="max"
        departPos="base" arrivalPos="max" />
    <trip id="128" depart="94.50" from="s2" to="t" departLane="best" departSpeed="max"
        departPos="base" arrivalPos="max" />
    <trip id="129" depart="96.00" from="s1" to="t" departLane="best" departSpeed="max"
        departPos="base" arrivalPos="max" />
    <trip id="130" depart="96.00" from="s2" to="t" departLane="best" departSpeed="max"
        departPos="base" arrivalPos="max" />
    <trip id="131" depart="97.50" from="s1" to="t" departLane="best" departSpeed="max"
        departPos="base" arrivalPos="max" />
    <trip id="132" depart="97.50" from="s2" to="t" departLane="best" departSpeed="max"
        departPos="base" arrivalPos="max" />
    <trip id="133" depart="99.00" from="s1" to="t" departLane="best" departSpeed="max"
        departPos="base" arrivalPos="max" />
    <trip id="134" depart="99.00" from="s2" to="t" departLane="best" departSpeed="max"
        departPos="base" arrivalPos="max" />
    <trip id="135" depart="100.50" from="s1" to="t" departLane="best" departSpeed="max"
        departPos="base" arrivalPos="max" />
    <trip id="136" depart="100.50" from="s2" to="t" departLane="best" departSpeed="max"
        departPos="base" arrivalPos="max" />
    <trip id="137" depart="102.00" from="s1" to="t" departLane="best" departSpeed="max"
        departPos="base" arrivalPos="max" />
    <trip id="138" depart="102.00" from="s2" to="t" departLane="best" departSpeed="max"
        departPos="base" arrivalPos="max" />
    <trip id="139" depart="103.50" from="s1" to="t" departLane="best" departSpeed="max"
        departPos="base" arrivalPos="max" />
    <trip id="140" depart="103.50" from="s2" to="t" departLane="best" departSpeed="max"
        departPos="base" arrivalPos="max" />
    <trip id="141" depart="105.00" from="s1" to="t" departLane="best" departSpeed="max"
        departPos="base" arrivalPos="max" />
    <trip id="142" depart="105.00" from="s2" to="t" departLane="best" departSpeed="max"
        departPos="base" arrivalPos="max" />
    <trip id="143" depart="106.50" from="s1" to="t" departLane="best" departSpeed="max"
        departPos="base" arrivalPos="max" />
    <trip id="144" depart="106.50" from="s2" to="t" departLane="best" departSpeed="max"
        departPos="base" arrivalPos="max" />
    <trip id="145" depart="108.00" from="s1" to="t" departLane="best" departSpeed="max"
        departPos="base" arrivalPos="max" />
    <trip id="146" depart="108.00" from="s2" to="t" departLane="best" departSpeed="max"
        departPos="base" arrivalPos="max" />
    <trip id="147" depart="109.50" from="s1" to="t" departLane="best" departSpeed="max"
        departPos="base" arrivalPos="max" />
    <trip id="148" depart="109.50" from="s2" to="t" departLane="best" departSpeed="max"
        departPos="base" arrivalPos="max" />
    <trip id="149" depart="111.00" from="s1" to="t" departLane="best" departSpeed="max"
        departPos="base" arrivalPos="max" />
    <trip id="150" depart="111.00" from="s2" to="t" departLane="best" departSpeed="max"
        departPos="base" arrivalPos="max" />
    <trip id="151" depart="112.50" from="s1" to="t" departLane="best" departSpeed="max"
        departPos="base" arrivalPos="max" />
    <trip id="152" depart="112.50" from="s2" to="t" departLane="best" departSpeed="max"
        departPos="base" arrivalPos="max" />
    <trip id="153" depart="114.00" from="s1" to="t" departLane="best" departSpeed="max"
        departPos="base" arrivalPos="max" />
    <trip id="154" depart="114.00" from="s2" to="t" departLane="best" departSpeed="max"
        departPos="base" arrivalPos="max" />
    <trip id="155" depart="115.50" from="s1" to="t" departLane="best" departSpeed="max"
        departPos="base" arrivalPos="max" />
    <trip id="156" depart="115.50" from="s2" to="t" departLane="best" departSpeed="max"
        departPos="base" arrivalPos="max" />
    <trip id="157" depart="117.00" from="s1" to="t" departLane="best" departSpeed="max"
        departPos="base" arrivalPos="max" />
    <trip id="158" depart="117.00" from="s2" to="t" departLane="best" departSpeed="max"
        departPos="base" arrivalPos="max" />
    <trip id="159" depart="118.50" from="s1" to="t" departLane="best" departSpeed="max"
        departPos="base" arrivalPos="max" />
    <trip id="160" depart="118.50" from="s2" to="t" departLane="best" departSpeed="max"
        departPos="base" arrivalPos="max" />
    <trip id="161" depart="120.00" from="s1" to="t" departLane="best" departSpeed="max"
        departPos="base" arrivalPos="max" />
    <trip id="162" depart="120.00" from="s2" to="t" departLane="best" departSpeed="max"
        departPos="base" arrivalPos="max" />
    <trip id="163" depart="121.50" from="s1" to="t" departLane="best" departSpeed="max"
        departPos="base" arrivalPos="max" />
    <trip id="164" depart="121.50" from="s2" to="t" departLane="best" departSpeed="max"
        departPos="base" arrivalPos="max" />
    <trip id="165" depart="123.00" from="s1" to="t" departLane="best" departSpeed="max"
        departPos="base" arrivalPos="max" />
    <trip id="166" depart="123.00" from="s2" to="t" departLane="best" departSpeed="max"
        departPos="base" arrivalPos="max" />
    <trip id="167" depart="124.50" from="s1" to="t" departLane="best" departSpeed="max"
        departPos="base" arrivalPos="max" />
    <trip id="168" depart="124.50" from="s2" to="t" departLane="best" departSpeed="max"
        departPos="base" arrivalPos="max" />
    <trip id="169" depart="126.00" from="s1" to="t" departLane="best" departSpeed="max"
        departPos="base" arrivalPos="max" />
    <trip id="170" depart="126.00" from="s2" to="t" departLane="best" departSpeed="max"
        departPos="base" arrivalPos="max" />
    <trip id="171" depart="127.50" from="s1" to="t" departLane="best" departSpeed="max"
        departPos="base" arrivalPos="max" />
    <trip id="172" depart="127.50" from="s2" to="t" departLane="best" departSpeed="max"
        departPos="base" arrivalPos="max" />
    <trip id="173" depart="129.00" from="s1" to="t" departLane="best" departSpeed="max"
        departPos="base" arrivalPos="max" />
    <trip id="174" depart="129.00" from="s2" to="t" departLane="best" departSpeed="max"
        departPos="base" arrivalPos="max" />
    <trip id="175" depart="130.50" from="s1" to="t" departLane="best" departSpeed="max"
        departPos="base" arrivalPos="max" />
    <trip id="176" depart="130.50" from="s2" to="t" departLane="best" departSpeed="max"
        departPos="base" arrivalPos="max" />
    <trip id="177" depart="132.00" from="s1" to="t" departLane="best" departSpeed="max"
        departPos="base" arrivalPos="max" />
    <trip id="178" depart="132.00" from="s2" to="t" departLane="best" departSpeed="max"
        departPos="base" arrivalPos="max" />
    <trip id="179" depart="133.50" from="s1" to="t" departLane="best" departSpeed="max"
        departPos="base" arrivalPos="max" />
    <trip id="180" depart="133.50" from="s2" to="t" departLane="best" departSpeed="max"
        departPos="base" arrivalPos="max" />
    <trip id="181" depart="135.00" from="s1" to="t" departLane="best" departSpeed="max"
        departPos="base" arrivalPos="max" />
    <trip id="182" depart="135.00" from="s2" to="t" departLane="best" departSpeed="max"
        departPos="base" arrivalPos="max" />
    <trip id="183" depart="136.50" from="s1" to="t" departLane="best" departSpeed="max"
        departPos="base" arrivalPos="max" />
    <trip id="184" depart="136.50" from="s2" to="t" departLane="best" departSpeed="max"
        departPos="base" arrivalPos="max" />
    <trip id="185" depart="138.00" from="s1" to="t" departLane="best" departSpeed="max"
        departPos="base" arrivalPos="max" />
    <trip id="186" depart="138.00" from="s2" to="t" departLane="best" departSpeed="max"
        departPos="base" arrivalPos="max" />
    <trip id="187" depart="139.50" from="s1" to="t" departLane="best" departSpeed="max"
        departPos="base" arrivalPos="max" />
    <trip id="188" depart="139.50" from="s2" to="t" departLane="best" departSpeed="max"
        departPos="base" arrivalPos="max" />
    <trip id="189" depart="141.00" from="s1" to="t" departLane="best" departSpeed="max"
        departPos="base" arrivalPos="max" />
    <trip id="190" depart="141.00" from="s2" to="t" departLane="best" departSpeed="max"
        departPos="base" arrivalPos="max" />
    <trip id="191" depart="142.50" from="s1" to="t" departLane="best" departSpeed="max"
        departPos="base" arrivalPos="max" />
    <trip id="192" depart="142.50" from="s2" to="t" departLane="best" departSpeed="max"
        departPos="base" arrivalPos="max" />
    <trip id="193" depart="144.00" from="s1" to="t" departLane="best" departSpeed="max"
        departPos="base" arrivalPos="max" />
    <trip id="194" depart="144.00" from="s2" to="t" departLane="best" departSpeed="max"
        departPos="base" arrivalPos="max" />
    <trip id="195" depart="145.50" from="s1" to="t" departLane="best" departSpeed="max"
        departPos="base" arrivalPos="max" />
    <trip id="196" depart="145.50" from="s2" to="t" departLane="best" departSpeed="max"
        departPos="base" arrivalPos="max" />
    <trip id="197" depart="147.00" from="s1" to="t" departLane="best" departSpeed="max"
        departPos="base" arrivalPos="max" />
    <trip id="198" depart="147.00" from="s2" to="t" departLane="best" departSpeed="max"
        departPos="base" arrivalPos="max" />
    <trip id="199" depart="148.50" from="s1" to="t" departLane="best" departSpeed="max"
        departPos="base" arrivalPos="max" />
    <trip id="200" depart="148.50" from="s2" to="t" departLane="best" departSpeed="max"
        departPos="base" arrivalPos="max" />
    <trip id="201" depart="150.00" from="s1" to="t" departLane="best" departSpeed="max"
        departPos="base" arrivalPos="max" />
    <trip id="202" depart="150.00" from="s2" to="t" departLane="best" departSpeed="max"
        departPos="base" arrivalPos="max" />
    <trip id="203" depart="151.50" from="s1" to="t" departLane="best" departSpeed="max"
        departPos="base" arrivalPos="max" />
    <trip id="204" depart="151.50" from="s2" to="t" departLane="best" departSpeed="max"
        departPos="base" arrivalPos="max" />
    <trip id="205" depart="153.00" from="s1" to="t" departLane="best" departSpeed="max"
        departPos="base" arrivalPos="max" />
    <trip id="206" depart="153.00" from="s2" to="t" departLane="best" departSpeed="max"
        departPos="base" arrivalPos="max" />
    <trip id="207" depart="154.50" from="s1" to="t" departLane="best" departSpeed="max"
        departPos="base" arrivalPos="max" />
    <trip id="208" depart="154.50" from="s2" to="t" departLane="best" departSpeed="max"
        departPos="base" arrivalPos="max" />
    <trip id="209" depart="156.00" from="s1" to="t" departLane="best" departSpeed="max"
        departPos="base" arrivalPos="max" />
    <trip id="210" depart="156.00" from="s2" to="t" departLane="best" departSpeed="max"
        departPos="base" arrivalPos="max" />
    <trip id="211" depart="157.50" from="s1" to="t" departLane="best" departSpeed="max"
        departPos="base" arrivalPos="max" />
    <trip id="212" depart="157.50" from="s2" to="t" departLane="best" departSpeed="max"
        departPos="base" arrivalPos="max" />
    <trip id="213" depart="159.00" from="s1" to="t" departLane="best" departSpeed="max"
        departPos="base" arrivalPos="max" />
    <trip id="214" depart="159.00" from="s2" to="t" departLane="best" departSpeed="max"
        departPos="base" arrivalPos="max" />
    <trip id="215" depart="160.50" from="s1" to="t" departLane="best" departSpeed="max"
        departPos="base" arrivalPos="max" />
    <trip id="216" depart="160.50" from="s2" to="t" departLane="best" departSpeed="max"
        departPos="base" arrivalPos="max" />
    <trip id="217" depart="162.00" from="s1" to="t" departLane="best" departSpeed="max"
        departPos="base" arrivalPos="max" />
    <trip id="218" depart="162.00" from="s2" to="t" departLane="best" departSpeed="max"
        departPos="base" arrivalPos="max" />
    <trip id="219" depart="163.50" from="s1" to="t" departLane="best" departSpeed="max"
        departPos="base" arrivalPos="max" />
    <trip id="220" depart="163.50" from="s2" to="t" departLane="best" departSpeed="max"
        departPos="base" arrivalPos="max" />
    <trip id="221" depart="165.00" from="s1" to="t" departLane="best" departSpeed="max"
        departPos="base" arrivalPos="max" />
    <trip id="222" depart="165.00" from="s2" to="t" departLane="best" departSpeed="max"
        departPos="base" arrivalPos="max" />
    <trip id="223" depart="166.50" from="s1" to="t" departLane="best" departSpeed="max"
        departPos="base" arrivalPos="max" />
    <trip id="224" depart="166.50" from="s2" to="t" departLane="best" departSpeed="max"
        departPos="base" arrivalPos="max" />
    <trip id="225" depart="168.00" from="s1" to="t" departLane="best" departSpeed="max"
        departPos="base" arrivalPos="max" />
    <trip id="226" depart="168.00" from="s2" to="t" departLane="best" departSpeed="max"
        departPos="base" arrivalPos="max" />
    <trip id="227" depart="169.50" from="s1" to="t" departLane="best" departSpeed="max"
        departPos="base" arrivalPos="max" />