<?xml version="1.0" encoding="UTF-8"?>


<edges version="1.20"
    xmlns:xsi="http://www.w3.org/2001/XMLSchema-instance"
    xsi:noNamespaceSchemaLocation="http://sumo.dlr.de/xsd/edges_file.xsd">
    <edge id="e0" from="v0" to="v1" priority="-1" numLanes="1" speed="5" />
    <edge id="e1" from="v1" to="v2" priority="-1" numLanes="1" speed="2.5" />
    <edge id="e2" from="v1" to="v2" priority="-1" numLanes="1" speed="1.5" />
    <edge id="e3" from="v2" to="v3" priority="-1" numLanes="1" speed="5" />
</edges>