<?xml version="1.0" encoding="UTF-8"?>

<!-- generated on 2025-09-24 14:20:20 by Eclipse SUMO netconvert Version 1.23.1
<netconvertConfiguration xmlns:xsi="http://www.w3.org/2001/XMLSchema-instance" xsi:noNamespaceSchemaLocation="http://sumo.dlr.de/xsd/netconvertConfiguration.xsd">

    <input>
        <node-files value="suboptimal-routing.nod.xml"/>
        <edge-files value="suboptimal-routing.edg.xml"/>
    </input>

    <output>
        <output-file value="suboptimal-routing.net.xml"/>
    </output>

</netconvertConfiguration>
-->

<net version="1.20" junctionCornerDetail="5" limitTurnSpeed="5.50" xmlns:xsi="http://www.w3.org/2001/XMLSchema-instance" xsi:noNamespaceSchemaLocation="http://sumo.dlr.de/xsd/net_file.xsd">

    <location netOffset="0.00,0.00" convBoundary="0.00,0.00,450.00,0.00" origBoundary="0.00,0.00,3600.00,3600.00" projParameter="!"/>

    <edge id=":v1_0" function="internal">
        <lane id=":v1_0_0" index="0" speed="3.75" length="3.00" shape="148.50,-1.60 151.50,-1.60"/>
    </edge>
    <edge id=":v1_1" function="internal">
        <lane id=":v1_1_0" index="0" speed="5.00" length="3.00" shape="148.50,-1.60 151.50,-1.60"/>
    </edge>
    <edge id=":v2_0" function="internal">
        <lane id=":v2_0_0" index="0" speed="5.00" length="3.00" shape="298.50,-1.60 301.50,-1.60"/>
    </edge>
    <edge id=":v2_1" function="internal">
        <lane id=":v2_1_0" index="0" speed="3.75" length="3.00" shape="298.50,-1.60 301.50,-1.60"/>
    </edge>

    <edge id="e0" from="v0" to="v1" priority="-1">
        <lane id="e0_0" index="0" speed="5.00" length="148.50" shape="0.00,-1.60 148.50,-1.60"/>
    </edge>
    <edge id="e1" from="v1" to="v2" priority="-1">
        <lane id="e1_0" index="0" speed="5.00" length="147.00" shape="151.50,-1.60 298.50,-1.60"/>
    </edge>
    <edge id="e2" from="v1" to="v2" priority="-1">
        <lane id="e2_0" index="0" speed="2.50" length="147.00" shape="151.50,-1.60 298.50,-1.60"/>
    </edge>
    <edge id="e3" from="v2" to="v3" priority="-1">
        <lane id="e3_0" index="0" speed="5.00" length="148.50" shape="301.50,-1.60 450.00,-1.60"/>
    </edge>

    <junction id="v0" type="dead_end" x="0.00" y="0.00" incLanes="" intLanes="" shape="0.00,0.00 0.00,-3.20"/>
    <junction id="v1" type="priority" x="150.00" y="0.00" incLanes="e0_0" intLanes=":v1_0_0 :v1_1_0" shape="151.50,0.00 151.50,-3.20 148.50,-3.20 148.50,0.00">
        <request index="0" response="00" foes="00" cont="0"/>
        <request index="1" response="00" foes="00" cont="0"/>
    </junction>
    <junction id="v2" type="priority" x="300.00" y="0.00" incLanes="e1_0 e2_0" intLanes=":v2_0_0 :v2_1_0" shape="301.50,0.00 301.50,-3.20 298.50,-3.20 298.50,0.00">
        <request index="0" response="00" foes="10" cont="0"/>
        <request index="1" response="01" foes="01" cont="0"/>
    </junction>
    <junction id="v3" type="dead_end" x="450.00" y="0.00" incLanes="e3_0" intLanes="" shape="450.00,-3.20 450.00,0.00"/>

    <connection from="e0" to="e2" fromLane="0" toLane="0" via=":v1_0_0" dir="s" state="M"/>
    <connection from="e0" to="e1" fromLane="0" toLane="0" via=":v1_1_0" dir="s" state="M"/>
    <connection from="e1" to="e3" fromLane="0" toLane="0" via=":v2_0_0" dir="s" state="M"/>
    <connection from="e2" to="e3" fromLane="0" toLane="0" via=":v2_1_0" dir="s" state="m"/>

    <connection from=":v1_0" to="e2" fromLane="0" toLane="0" dir="s" state="M"/>
    <connection from=":v1_1" to="e1" fromLane="0" toLane="0" dir="s" state="M"/>
    <connection from=":v2_0" to="e3" fromLane="0" toLane="0" dir="s" state="M"/>
    <connection from=":v2_1" to="e3" fromLane="0" toLane="0" dir="s" state="M"/>

</net>
